183cfd2d-a543-4691-b979-d5b737c19f95
     RDKit          3D

 33 34  0  0  0  0  0  0  0  0999 V2000
    0.4795   -2.9369   -0.2360 O   0  0  0  0  0  0  0  0  0  0  0  0
    0.6363   -1.8240    0.6723 S   0  0  0  0  0  6  0  0  0  0  0  0
    0.7744   -2.0079    2.0997 O   0  0  0  0  0  0  0  0  0  0  0  0
   -0.6625   -0.7617    0.4696 N   0  0  0  0  0  0  0  0  0  0  0  0
   -1.9541   -1.4452    0.2516 C   0  0  0  0  0  0  0  0  0  0  0  0
   -3.0900   -0.4513    0.2799 C   0  0  0  0  0  0  0  0  0  0  0  0
   -3.2452    0.4728   -0.7639 C   0  0  0  0  0  0  0  0  0  0  0  0
   -4.2835    1.4047   -0.7366 C   0  0  0  0  0  0  0  0  0  0  0  0
   -5.1736    1.4253    0.3353 C   0  0  0  0  0  0  0  0  0  0  0  0
   -5.0251    0.5167    1.3817 C   0  0  0  0  0  0  0  0  0  0  0  0
   -3.9870   -0.4164    1.3569 C   0  0  0  0  0  0  0  0  0  0  0  0
    1.9851   -0.8320    0.0894 C   0  0  0  0  0  0  0  0  0  0  0  0
    2.1079   -0.5928   -1.2819 C   0  0  0  0  0  0  0  0  0  0  0  0
    3.1730    0.1767   -1.7537 C   0  0  0  0  0  0  0  0  0  0  0  0
    4.1180    0.7112   -0.8614 C   0  0  0  0  0  0  0  0  0  0  0  0
    5.2826    1.5244   -1.3765 C   0  0  0  0  0  0  0  0  0  0  0  0
    4.9874    2.2202   -2.5098 F   0  0  0  0  0  0  0  0  0  0  0  0
    6.3595    0.7500   -1.6812 F   0  0  0  0  0  0  0  0  0  0  0  0
    5.7263    2.4484   -0.4792 F   0  0  0  0  0  0  0  0  0  0  0  0
    3.9868    0.4453    0.5127 C   0  0  0  0  0  0  0  0  0  0  0  0
    2.9232   -0.3239    0.9904 C   0  0  0  0  0  0  0  0  0  0  0  0
   -0.7257   -0.1773    1.3064 H   0  0  0  0  0  0  0  0  0  0  0  0
   -1.9535   -1.9522   -0.7200 H   0  0  0  0  0  0  0  0  0  0  0  0
   -2.1105   -2.2017    1.0297 H   0  0  0  0  0  0  0  0  0  0  0  0
   -2.5508    0.4709   -1.6018 H   0  0  0  0  0  0  0  0  0  0  0  0
   -4.3967    2.1158   -1.5509 H   0  0  0  0  0  0  0  0  0  0  0  0
   -5.9824    2.1512    0.3562 H   0  0  0  0  0  0  0  0  0  0  0  0
   -5.7191    0.5353    2.2184 H   0  0  0  0  0  0  0  0  0  0  0  0
   -3.8863   -1.1158    2.1842 H   0  0  0  0  0  0  0  0  0  0  0  0
    1.3820   -1.0037   -1.9809 H   0  0  0  0  0  0  0  0  0  0  0  0
    3.2661    0.3588   -2.8240 H   0  0  0  0  0  0  0  0  0  0  0  0
    4.7189    0.8381    1.2181 H   0  0  0  0  0  0  0  0  0  0  0  0
    2.8390   -0.5229    2.0568 H   0  0  0  0  0  0  0  0  0  0  0  0
  1  2  2  0
  2  3  2  0
  2  4  1  0
  4  5  1  0
  5  6  1  0
  6  7  2  0
  7  8  1  0
  8  9  2  0
  9 10  1  0
 10 11  2  0
  2 12  1  0
 12 13  2  0
 13 14  1  0
 14 15  2  0
 15 16  1  0
 16 17  1  0
 16 18  1  0
 16 19  1  0
 15 20  1  0
 20 21  2  0
 11  6  1  0
 21 12  1  0
  4 22  1  0
  5 23  1  0
  5 24  1  0
  7 25  1  0
  8 26  1  0
  9 27  1  0
 10 28  1  0
 11 29  1  0
 13 30  1  0
 14 31  1  0
 20 32  1  0
 21 33  1  0
M  END
>  <enum_code>  
B

>  <uuid>  
183cfd2d-a543-4691-b979-d5b737c19f95

>  <sha256>  
129f8588a91260953442428c688d580e9654ccfc067ea20e8a76588bf01b96ac

>  <std_smi>  
O=S(=O)(NCc1ccccc1)c1ccc(C(F)(F)F)cc1

>  <enum_smi>  
O=S(=O)(NCc1ccccc1)c1ccc(C(F)(F)F)cc1

$$$$
1b32740e-1092-44f0-95ec-5ec2d623fdc4
     RDKit          3D

 32 33  0  0  0  0  0  0  0  0999 V2000
    0.2563   -2.8288   -1.9363 O   0  0  0  0  0  0  0  0  0  0  0  0
   -0.0347   -1.4174   -2.1826 S   0  0  0  0  0  6  0  0  0  0  0  0
    0.0668   -1.0200   -3.5857 O   0  0  0  0  0  0  0  0  0  0  0  0
   -1.3115   -0.8348   -1.4248 N   0  5  0  0  0  2  0  0  0  0  0  0
   -1.4645   -1.3598   -0.0722 C   0  0  0  0  0  0  0  0  0  0  0  0
   -2.5389   -0.5550    0.6276 C   0  0  0  0  0  0  0  0  0  0  0  0
   -3.8823   -0.9475    0.5598 C   0  0  0  0  0  0  0  0  0  0  0  0
   -4.8724   -0.2028    1.2033 C   0  0  0  0  0  0  0  0  0  0  0  0
   -4.5297    0.9457    1.9158 C   0  0  0  0  0  0  0  0  0  0  0  0
   -3.1977    1.3531    1.9798 C   0  0  0  0  0  0  0  0  0  0  0  0
   -2.2078    0.6083    1.3361 C   0  0  0  0  0  0  0  0  0  0  0  0
    1.4047   -0.5714   -1.4689 C   0  0  0  0  0  0  0  0  0  0  0  0
    2.2944   -1.2633   -0.6482 C   0  0  0  0  0  0  0  0  0  0  0  0
    3.3943   -0.5904   -0.1140 C   0  0  0  0  0  0  0  0  0  0  0  0
    3.6058    0.7713   -0.3962 C   0  0  0  0  0  0  0  0  0  0  0  0
    4.8061    1.4881    0.1631 C   0  0  0  0  0  0  0  0  0  0  0  0
    5.8939    1.4103   -0.6549 F   0  0  0  0  0  0  0  0  0  0  0  0
    4.5947    2.8208    0.3673 F   0  0  0  0  0  0  0  0  0  0  0  0
    5.2172    0.9977    1.3684 F   0  0  0  0  0  0  0  0  0  0  0  0
    2.7036    1.4447   -1.2388 C   0  0  0  0  0  0  0  0  0  0  0  0
    1.6028    0.7759   -1.7745 C   0  0  0  0  0  0  0  0  0  0  0  0
   -1.7588   -2.4176   -0.0665 H   0  0  0  0  0  0  0  0  0  0  0  0
   -0.5515   -1.3017    0.5339 H   0  0  0  0  0  0  0  0  0  0  0  0
   -4.1517   -1.8341   -0.0090 H   0  0  0  0  0  0  0  0  0  0  0  0
   -5.9092   -0.5177    1.1383 H   0  0  0  0  0  0  0  0  0  0  0  0
   -5.3004    1.5278    2.4110 H   0  0  0  0  0  0  0  0  0  0  0  0
   -2.9264    2.2534    2.5220 H   0  0  0  0  0  0  0  0  0  0  0  0
   -1.1715    0.9346    1.3737 H   0  0  0  0  0  0  0  0  0  0  0  0
    2.1286   -2.3148   -0.4297 H   0  0  0  0  0  0  0  0  0  0  0  0
    4.0861   -1.1358    0.5245 H   0  0  0  0  0  0  0  0  0  0  0  0
    2.8535    2.4941   -1.4835 H   0  0  0  0  0  0  0  0  0  0  0  0
    0.9006    1.2871   -2.4284 H   0  0  0  0  0  0  0  0  0  0  0  0
  1  2  2  0
  2  3  2  0
  2  4  1  0
  4  5  1  0
  5  6  1  0
  6  7  2  0
  7  8  1  0
  8  9  2  0
  9 10  1  0
 10 11  2  0
  2 12  1  0
 12 13  2  0
 13 14  1  0
 14 15  2  0
 15 16  1  0
 16 17  1  0
 16 18  1  0
 16 19  1  0
 15 20  1  0
 20 21  2  0
 11  6  1  0
 21 12  1  0
  5 22  1  0
  5 23  1  0
  7 24  1  0
  8 25  1  0
  9 26  1  0
 10 27  1  0
 11 28  1  0
 13 29  1  0
 14 30  1  0
 20 31  1  0
 21 32  1  0
M  CHG  1   4  -1
M  END
>  <enum_code>  
M

>  <uuid>  
1b32740e-1092-44f0-95ec-5ec2d623fdc4

>  <sha256>  
129f8588a91260953442428c688d580e9654ccfc067ea20e8a76588bf01b96ac

>  <std_smi>  
O=S(=O)(NCc1ccccc1)c1ccc(C(F)(F)F)cc1

>  <enum_smi>  
O=S(=O)([N-]Cc1ccccc1)c1ccc(C(F)(F)F)cc1

$$$$
a800d6c6-11dc-40e4-8609-bb73e6b537c4
     RDKit          3D

 26 28  0  0  0  0  0  0  0  0999 V2000
    4.3804    0.7639   -0.4991 C   0  0  0  0  0  0  0  0  0  0  0  0
    2.9388    0.4399   -0.3489 C   0  0  0  0  0  0  0  0  0  0  0  0
    2.0508    1.4167   -0.1422 N   0  0  0  0  0  0  0  0  0  0  0  0
    0.8436    0.7904   -0.0490 N   0  0  0  0  0  0  0  0  0  0  0  0
   -0.4270    1.3712    0.1773 C   0  0  0  0  0  0  0  0  0  0  0  0
   -0.5253    2.7441    0.3304 O   0  0  0  0  0  0  0  0  0  0  0  0
   -1.4918    0.5615    0.2466 C   0  0  0  0  0  0  0  0  0  0  0  0
   -1.2416   -0.8927    0.0386 C   0  0  0  0  0  0  0  0  0  0  0  0
   -0.0947   -1.4580   -0.1624 N   0  0  0  0  0  0  0  0  0  0  0  0
    0.9794   -0.6036   -0.2056 C   0  0  0  0  0  0  0  0  0  0  0  0
    2.3248   -0.8272   -0.3959 C   0  0  0  0  0  0  0  0  0  0  0  0
    2.9476   -2.0907   -0.5998 C   0  0  0  0  0  0  0  0  0  0  0  0
    3.4984   -3.0988   -0.7691 N   0  0  0  0  0  0  0  0  0  0  0  0
   -2.5336   -1.6471    0.1013 C   0  0  0  0  0  0  0  0  0  0  0  0
   -3.5506   -0.5283   -0.1426 C   0  0  0  0  0  0  0  0  0  0  0  0
   -2.9518    0.7520    0.4507 C   0  0  0  0  0  0  0  0  0  0  0  0
    4.9675    0.2602    0.2755 H   0  0  0  0  0  0  0  0  0  0  0  0
    4.7449    0.4370   -1.4782 H   0  0  0  0  0  0  0  0  0  0  0  0
    4.5625    1.8403   -0.4136 H   0  0  0  0  0  0  0  0  0  0  0  0
   -1.4500    2.9874    0.4954 H   0  0  0  0  0  0  0  0  0  0  0  0
   -2.5860   -2.4254   -0.6637 H   0  0  0  0  0  0  0  0  0  0  0  0
   -2.6448   -2.0890    1.0961 H   0  0  0  0  0  0  0  0  0  0  0  0
   -3.6979   -0.3974   -1.2229 H   0  0  0  0  0  0  0  0  0  0  0  0
   -4.5263   -0.7635    0.2940 H   0  0  0  0  0  0  0  0  0  0  0  0
   -3.1760    0.8157    1.5209 H   0  0  0  0  0  0  0  0  0  0  0  0
   -3.3413    1.6415   -0.0520 H   0  0  0  0  0  0  0  0  0  0  0  0
  1  2  1  0
  2  3  2  0
  3  4  1  0
  4  5  1  0
  5  6  1  0
  5  7  2  0
  7  8  1  0
  8  9  2  0
  9 10  1  0
 10 11  2  0
 11 12  1  0
 12 13  3  0
  8 14  1  0
 14 15  1  0
 15 16  1  0
 11  2  1  0
 10  4  1  0
 16  7  1  0
  1 17  1  0
  1 18  1  0
  1 19  1  0
  6 20  1  0
 14 21  1  0
 14 22  1  0
 15 23  1  0
 15 24  1  0
 16 25  1  0
 16 26  1  0
M  END
>  <enum_code>  
B

>  <uuid>  
a800d6c6-11dc-40e4-8609-bb73e6b537c4

>  <sha256>  
39e1b0cb6462242f67993cb5678037f9b85a03408faf08abbd395fb60bce143b

>  <std_smi>  
Cc1nn2c(O)c3c(nc2c1C#N)CCC3

>  <enum_smi>  
Cc1nn2c(O)c3c(nc2c1C#N)CCC3

$$$$
acaf5895-8334-450a-8ad6-82767e7dbeb8
     RDKit          3D

 26 28  0  0  0  0  0  0  0  0999 V2000
    4.0183   -0.4498   -1.5534 C   0  0  0  0  0  0  0  0  0  0  0  0
    2.8330   -0.2360   -0.9674 C   0  0  0  0  0  0  0  0  0  0  0  0
    1.9339   -1.2185   -0.5911 N   0  0  0  0  0  0  0  0  0  0  0  0
    0.7354   -0.6810   -0.2571 N   0  0  0  0  0  0  0  0  0  0  0  0
   -0.4338   -1.2974    0.1348 C   0  0  0  0  0  0  0  0  0  0  0  0
   -0.5028   -2.6689    0.0829 O   0  0  0  0  0  0  0  0  0  0  0  0
   -1.4416   -0.5052    0.5358 C   0  0  0  0  0  0  0  0  0  0  0  0
   -1.2688    0.9381    0.5543 C   0  0  0  0  0  0  0  0  0  0  0  0
   -0.0943    1.5401    0.1805 N   0  0  0  0  0  0  0  0  0  0  0  0
    0.8347    0.7087   -0.2091 C   0  0  0  0  0  0  0  0  0  0  0  0
    2.2256    1.1497   -0.6534 C   0  0  0  0  0  0  0  0  0  0  0  0
    2.1480    2.0046   -1.8389 C   0  0  0  0  0  0  0  0  0  0  0  0
    2.1327    2.6817   -2.7837 N   0  0  0  0  0  0  0  0  0  0  0  0
   -2.3775    1.5447    0.9744 C   0  0  0  0  0  0  0  0  0  0  0  0
   -3.4564    0.5602    1.2953 C   0  0  0  0  0  0  0  0  0  0  0  0
   -2.8273   -0.8145    1.0094 C   0  0  0  0  0  0  0  0  0  0  0  0
    4.6688    0.3709   -1.8415 H   0  0  0  0  0  0  0  0  0  0  0  0
    4.3738   -1.4552   -1.7561 H   0  0  0  0  0  0  0  0  0  0  0  0
    1.9228   -2.0754   -1.1425 H   0  0  0  0  0  0  0  0  0  0  0  0
   -1.3749   -2.9356    0.4155 H   0  0  0  0  0  0  0  0  0  0  0  0
    2.7391    1.6247    0.1879 H   0  0  0  0  0  0  0  0  0  0  0  0
   -2.4845    2.6154    1.0693 H   0  0  0  0  0  0  0  0  0  0  0  0
   -4.3364    0.7281    0.6658 H   0  0  0  0  0  0  0  0  0  0  0  0
   -3.7602    0.6424    2.3440 H   0  0  0  0  0  0  0  0  0  0  0  0
   -3.3997   -1.3475    0.2424 H   0  0  0  0  0  0  0  0  0  0  0  0
   -2.8078   -1.4245    1.9191 H   0  0  0  0  0  0  0  0  0  0  0  0
  1  2  2  3
  2  3  1  0
  3  4  1  0
  4  5  1  0
  5  6  1  0
  5  7  2  0
  7  8  1  0
  8  9  1  0
  9 10  2  0
 10 11  1  0
 11 12  1  0
 12 13  3  0
  8 14  2  0
 14 15  1  0
 15 16  1  0
 11  2  1  0
 10  4  1  0
 16  7  1  0
  1 17  1  0
  1 18  1  0
  3 19  1  0
  6 20  1  0
 11 21  1  0
 14 22  1  0
 15 23  1  0
 15 24  1  0
 16 25  1  0
 16 26  1  0
M  END
>  <enum_code>  
T

>  <uuid>  
acaf5895-8334-450a-8ad6-82767e7dbeb8

>  <sha256>  
39e1b0cb6462242f67993cb5678037f9b85a03408faf08abbd395fb60bce143b

>  <std_smi>  
Cc1nn2c(O)c3c(nc2c1C#N)CCC3

>  <enum_smi>  
C=C1NN2C(=NC3=CCCC3=C2O)C1C#N

$$$$
41d3623e-acd8-423e-8965-2314a4c32a17
     RDKit          3D

 26 28  0  0  0  0  0  0  0  0999 V2000
   -4.3690   -0.5264   -0.7752 C   0  0  0  0  0  0  0  0  0  0  0  0
   -3.0433   -0.4290   -0.6380 C   0  0  0  0  0  0  0  0  0  0  0  0
   -2.1617   -1.4702   -0.3784 N   0  0  0  0  0  0  0  0  0  0  0  0
   -0.9208   -0.8846   -0.1054 N   0  0  0  0  0  0  0  0  0  0  0  0
    0.2037   -1.5886    0.2970 C   0  0  0  0  0  0  0  0  0  0  0  0
    0.2493   -2.7914    0.5335 O   0  0  0  0  0  0  0  0  0  0  0  0
    1.3999   -0.7181    0.4443 C   0  0  0  0  0  0  0  0  0  0  0  0
    1.3159    0.5994    0.2037 C   0  0  0  0  0  0  0  0  0  0  0  0
    0.1610    1.2276   -0.1832 N   0  0  0  0  0  0  0  0  0  0  0  0
   -0.9786    0.4800   -0.3388 C   0  0  0  0  0  0  0  0  0  0  0  0
   -2.2419    0.7964   -0.6799 C   0  0  0  0  0  0  0  0  0  0  0  0
   -2.7135    2.0905   -0.9813 C   0  0  0  0  0  0  0  0  0  0  0  0
   -3.0841    3.1644   -1.2203 N   0  0  0  0  0  0  0  0  0  0  0  0
    2.6291    1.2735    0.4096 C   0  0  0  0  0  0  0  0  0  0  0  0
    3.4386    0.1916    1.1412 C   0  0  0  0  0  0  0  0  0  0  0  0
    2.7561   -1.1524    0.8491 C   0  0  0  0  0  0  0  0  0  0  0  0
   -4.8632   -1.4912   -0.7170 H   0  0  0  0  0  0  0  0  0  0  0  0
   -4.9996    0.3372   -0.9615 H   0  0  0  0  0  0  0  0  0  0  0  0
   -2.4706   -2.1494    0.3163 H   0  0  0  0  0  0  0  0  0  0  0  0
    0.1502    2.2269   -0.3537 H   0  0  0  0  0  0  0  0  0  0  0  0
    2.5453    2.1790    1.0180 H   0  0  0  0  0  0  0  0  0  0  0  0
    3.0860    1.5281   -0.5524 H   0  0  0  0  0  0  0  0  0  0  0  0
    3.4171    0.3864    2.2218 H   0  0  0  0  0  0  0  0  0  0  0  0
    4.4903    0.1916    0.8363 H   0  0  0  0  0  0  0  0  0  0  0  0
    2.7493   -1.7912    1.7370 H   0  0  0  0  0  0  0  0  0  0  0  0
    3.2544   -1.6800    0.0294 H   0  0  0  0  0  0  0  0  0  0  0  0
  1  2  2  3
  2  3  1  0
  3  4  1  0
  4  5  1  0
  5  6  2  0
  5  7  1  0
  7  8  2  0
  8  9  1  0
  9 10  1  0
 10 11  2  0
 11 12  1  0
 12 13  3  0
  8 14  1  0
 14 15  1  0
 15 16  1  0
 11  2  1  0
 10  4  1  0
 16  7  1  0
  1 17  1  0
  1 18  1  0
  3 19  1  0
  9 20  1  0
 14 21  1  0
 14 22  1  0
 15 23  1  0
 15 24  1  0
 16 25  1  0
 16 26  1  0
M  END
>  <enum_code>  
T

>  <uuid>  
41d3623e-acd8-423e-8965-2314a4c32a17

>  <sha256>  
39e1b0cb6462242f67993cb5678037f9b85a03408faf08abbd395fb60bce143b

>  <std_smi>  
Cc1nn2c(O)c3c(nc2c1C#N)CCC3

>  <enum_smi>  
C=C1NN2C(=O)C3=C(CCC3)NC2=C1C#N

$$$$
ce65fe6b-092a-4d56-a512-ac3e7f21d90e
     RDKit          3D

 26 28  0  0  0  0  0  0  0  0999 V2000
    1.8543    1.6678   -3.3462 C   0  0  0  0  0  0  0  0  0  0  0  0
    1.3668    0.9575   -2.3212 C   0  0  0  0  0  0  0  0  0  0  0  0
    0.0552    0.5564   -2.1742 N   0  0  0  0  0  0  0  0  0  0  0  0
   -0.1671    0.2360   -0.8458 N   0  0  0  0  0  0  0  0  0  0  0  0
   -1.4329    0.2350   -0.2855 C   0  0  0  0  0  0  0  0  0  0  0  0
   -2.4730    0.3796   -0.9262 O   0  0  0  0  0  0  0  0  0  0  0  0
   -1.3906    0.1900    1.2336 C   0  0  0  0  0  0  0  0  0  0  0  0
   -0.0661   -0.3327    1.7182 C   0  0  0  0  0  0  0  0  0  0  0  0
    1.1224   -0.0045    1.1292 N   0  0  0  0  0  0  0  0  0  0  0  0
    1.0275    0.2337   -0.1419 C   0  0  0  0  0  0  0  0  0  0  0  0
    2.1680    0.5727   -1.0739 C   0  0  0  0  0  0  0  0  0  0  0  0
    3.0122   -0.6001   -1.3086 C   0  0  0  0  0  0  0  0  0  0  0  0
    3.7059   -1.5107   -1.5080 N   0  0  0  0  0  0  0  0  0  0  0  0
   -0.2157   -1.1855    2.7341 C   0  0  0  0  0  0  0  0  0  0  0  0
   -1.6568   -1.3884    3.0683 C   0  0  0  0  0  0  0  0  0  0  0  0
   -2.3791   -0.7951    1.8538 C   0  0  0  0  0  0  0  0  0  0  0  0
    2.8942    1.9801   -3.3792 H   0  0  0  0  0  0  0  0  0  0  0  0
    1.2312    1.9392   -4.1931 H   0  0  0  0  0  0  0  0  0  0  0  0
   -0.6667    1.1278   -2.6181 H   0  0  0  0  0  0  0  0  0  0  0  0
   -1.5466    1.2071    1.6128 H   0  0  0  0  0  0  0  0  0  0  0  0
    2.7283    1.4224   -0.6724 H   0  0  0  0  0  0  0  0  0  0  0  0
    0.5987   -1.6859    3.2392 H   0  0  0  0  0  0  0  0  0  0  0  0
   -1.9124   -0.8563    3.9903 H   0  0  0  0  0  0  0  0  0  0  0  0
   -1.9013   -2.4476    3.1893 H   0  0  0  0  0  0  0  0  0  0  0  0
   -3.3150   -0.3055    2.1440 H   0  0  0  0  0  0  0  0  0  0  0  0
   -2.6416   -1.5930    1.1466 H   0  0  0  0  0  0  0  0  0  0  0  0
  1  2  2  3
  2  3  1  0
  3  4  1  0
  4  5  1  0
  5  6  2  0
  5  7  1  0
  7  8  1  0
  8  9  1  0
  9 10  2  0
 10 11  1  0
 11 12  1  0
 12 13  3  0
  8 14  2  0
 14 15  1  0
 15 16  1  0
 11  2  1  0
 10  4  1  0
 16  7  1  0
  1 17  1  0
  1 18  1  0
  3 19  1  0
  7 20  1  0
 11 21  1  0
 14 22  1  0
 15 23  1  0
 15 24  1  0
 16 25  1  0
 16 26  1  0
M  END
>  <enum_code>  
T

>  <uuid>  
ce65fe6b-092a-4d56-a512-ac3e7f21d90e

>  <sha256>  
39e1b0cb6462242f67993cb5678037f9b85a03408faf08abbd395fb60bce143b

>  <std_smi>  
Cc1nn2c(O)c3c(nc2c1C#N)CCC3

>  <enum_smi>  
C=C1NN2C(=O)C3CCC=C3N=C2C1C#N

$$$$
5cddb777-44eb-4f12-b088-184dab734f8f
     RDKit          3D

 26 28  0  0  0  0  0  0  0  0999 V2000
    4.3479   -0.0205   -0.6210 C   0  0  0  0  0  0  0  0  0  0  0  0
    3.0208   -0.0126   -0.4653 C   0  0  0  0  0  0  0  0  0  0  0  0
    2.1397   -1.0217   -0.8230 N   0  0  0  0  0  0  0  0  0  0  0  0
    0.9018   -0.6953   -0.2568 N   0  0  0  0  0  0  0  0  0  0  0  0
   -0.2275   -1.4873   -0.3794 C   0  0  0  0  0  0  0  0  0  0  0  0
   -0.2456   -2.5786   -0.9499 O   0  0  0  0  0  0  0  0  0  0  0  0
   -1.4367   -0.9385    0.3897 C   0  0  0  0  0  0  0  0  0  0  0  0
   -1.4065    0.5680    0.5498 C   0  0  0  0  0  0  0  0  0  0  0  0
   -0.1989    1.1875    0.7222 N   0  0  0  0  0  0  0  0  0  0  0  0
    0.9473    0.5850    0.2637 C   0  0  0  0  0  0  0  0  0  0  0  0
    2.2123    1.0382    0.1539 C   0  0  0  0  0  0  0  0  0  0  0  0
    2.6713    2.3108    0.5530 C   0  0  0  0  0  0  0  0  0  0  0  0
    3.0326    3.3627    0.8854 N   0  0  0  0  0  0  0  0  0  0  0  0
   -2.6332    1.0866    0.4488 C   0  0  0  0  0  0  0  0  0  0  0  0
   -3.6469    0.0287    0.1438 C   0  0  0  0  0  0  0  0  0  0  0  0
   -2.7837   -1.1605   -0.2906 C   0  0  0  0  0  0  0  0  0  0  0  0
    4.9757    0.8053   -0.3012 H   0  0  0  0  0  0  0  0  0  0  0  0
    4.8468   -0.8618   -1.0918 H   0  0  0  0  0  0  0  0  0  0  0  0
    2.4547   -1.9751   -0.6479 H   0  0  0  0  0  0  0  0  0  0  0  0
   -1.4257   -1.4026    1.3850 H   0  0  0  0  0  0  0  0  0  0  0  0
   -0.1951    2.2001    0.8084 H   0  0  0  0  0  0  0  0  0  0  0  0
   -2.8781    2.1360    0.5311 H   0  0  0  0  0  0  0  0  0  0  0  0
   -4.2352   -0.2026    1.0378 H   0  0  0  0  0  0  0  0  0  0  0  0
   -4.3238    0.3336   -0.6594 H   0  0  0  0  0  0  0  0  0  0  0  0
   -2.6768   -1.1704   -1.3834 H   0  0  0  0  0  0  0  0  0  0  0  0
   -3.2374   -2.1149   -0.0030 H   0  0  0  0  0  0  0  0  0  0  0  0
  1  2  2  3
  2  3  1  0
  3  4  1  0
  4  5  1  0
  5  6  2  0
  5  7  1  0
  7  8  1  0
  8  9  1  0
  9 10  1  0
 10 11  2  0
 11 12  1  0
 12 13  3  0
  8 14  2  0
 14 15  1  0
 15 16  1  0
 11  2  1  0
 10  4  1  0
 16  7  1  0
  1 17  1  0
  1 18  1  0
  3 19  1  0
  7 20  1  0
  9 21  1  0
 14 22  1  0
 15 23  1  0
 15 24  1  0
 16 25  1  0
 16 26  1  0
M  END
>  <enum_code>  
T

>  <uuid>  
5cddb777-44eb-4f12-b088-184dab734f8f

>  <sha256>  
39e1b0cb6462242f67993cb5678037f9b85a03408faf08abbd395fb60bce143b

>  <std_smi>  
Cc1nn2c(O)c3c(nc2c1C#N)CCC3

>  <enum_smi>  
C=C1NN2C(=O)C3CCC=C3NC2=C1C#N

$$$$
a50edc1e-3c8a-4b2b-abb6-21bafb8f7440
     RDKit          3D

 26 28  0  0  0  0  0  0  0  0999 V2000
    2.5416    2.4629    2.7267 C   0  0  0  0  0  0  0  0  0  0  0  0
    1.8694    1.6787    1.8788 C   0  0  0  0  0  0  0  0  0  0  0  0
    1.5518    0.3387    2.0648 N   0  0  0  0  0  0  0  0  0  0  0  0
    0.6494   -0.0036    1.0504 N   0  0  0  0  0  0  0  0  0  0  0  0
   -0.0112   -1.2079    0.9900 C   0  0  0  0  0  0  0  0  0  0  0  0
    0.1431   -2.1449    1.7677 O   0  0  0  0  0  0  0  0  0  0  0  0
   -1.0732   -1.1832   -0.0717 C   0  0  0  0  0  0  0  0  0  0  0  0
   -0.8140   -0.1814   -1.1611 C   0  0  0  0  0  0  0  0  0  0  0  0
   -0.1145    0.9030   -1.0358 N   0  0  0  0  0  0  0  0  0  0  0  0
    0.5562    1.0302    0.1487 C   0  0  0  0  0  0  0  0  0  0  0  0
    1.2840    2.0692    0.5939 C   0  0  0  0  0  0  0  0  0  0  0  0
    1.4632    3.3052   -0.0614 C   0  0  0  0  0  0  0  0  0  0  0  0
    1.6249    4.3391   -0.5652 N   0  0  0  0  0  0  0  0  0  0  0  0
   -1.4281   -0.5907   -2.4706 C   0  0  0  0  0  0  0  0  0  0  0  0
   -2.0126   -1.9622   -2.1298 C   0  0  0  0  0  0  0  0  0  0  0  0
   -1.2428   -2.4467   -0.8982 C   0  0  0  0  0  0  0  0  0  0  0  0
    2.9295    2.0695    3.6610 H   0  0  0  0  0  0  0  0  0  0  0  0
    2.7396    3.5094    2.5156 H   0  0  0  0  0  0  0  0  0  0  0  0
    1.2689    0.0756    3.0085 H   0  0  0  0  0  0  0  0  0  0  0  0
   -2.0218   -0.9096    0.4084 H   0  0  0  0  0  0  0  0  0  0  0  0
   -2.1917    0.1212   -2.7920 H   0  0  0  0  0  0  0  0  0  0  0  0
   -0.6422   -0.6665   -3.2278 H   0  0  0  0  0  0  0  0  0  0  0  0
   -3.0768   -1.8583   -1.8842 H   0  0  0  0  0  0  0  0  0  0  0  0
   -1.9330   -2.6615   -2.9675 H   0  0  0  0  0  0  0  0  0  0  0  0
   -0.2703   -2.8608   -1.1921 H   0  0  0  0  0  0  0  0  0  0  0  0
   -1.7894   -3.2253   -0.3571 H   0  0  0  0  0  0  0  0  0  0  0  0
  1  2  2  3
  2  3  1  0
  3  4  1  0
  4  5  1  0
  5  6  2  0
  5  7  1  0
  7  8  1  0
  8  9  2  0
  9 10  1  0
 10 11  2  0
 11 12  1  0
 12 13  3  0
  8 14  1  0
 14 15  1  0
 15 16  1  0
 11  2  1  0
 10  4  1  0
 16  7  1  0
  1 17  1  0
  1 18  1  0
  3 19  1  0
  7 20  1  0
 14 21  1  0
 14 22  1  0
 15 23  1  0
 15 24  1  0
 16 25  1  0
 16 26  1  0
M  END
>  <enum_code>  
T

>  <uuid>  
a50edc1e-3c8a-4b2b-abb6-21bafb8f7440

>  <sha256>  
39e1b0cb6462242f67993cb5678037f9b85a03408faf08abbd395fb60bce143b

>  <std_smi>  
Cc1nn2c(O)c3c(nc2c1C#N)CCC3

>  <enum_smi>  
C=C1NN2C(=O)C3CCCC3=NC2=C1C#N

$$$$
d50fb155-3a6a-4644-8778-0b5426e14769
     RDKit          3D

 26 28  0  0  0  0  0  0  0  0999 V2000
    4.3662    0.5491   -0.3901 C   0  0  0  0  0  0  0  0  0  0  0  0
    3.0388    0.3967   -0.3696 C   0  0  0  0  0  0  0  0  0  0  0  0
    2.0907    1.3702   -0.0640 N   0  0  0  0  0  0  0  0  0  0  0  0
    0.8669    0.7561    0.0377 N   0  0  0  0  0  0  0  0  0  0  0  0
   -0.3738    1.2914    0.3651 C   0  0  0  0  0  0  0  0  0  0  0  0
   -0.4118    2.6176    0.7374 O   0  0  0  0  0  0  0  0  0  0  0  0
   -1.4728    0.5065    0.3189 C   0  0  0  0  0  0  0  0  0  0  0  0
   -1.3685   -0.8992   -0.0749 C   0  0  0  0  0  0  0  0  0  0  0  0
   -0.1361   -1.4062   -0.3915 N   0  0  0  0  0  0  0  0  0  0  0  0
    0.9804   -0.6023   -0.3468 C   0  0  0  0  0  0  0  0  0  0  0  0
    2.2843   -0.8462   -0.6097 C   0  0  0  0  0  0  0  0  0  0  0  0
    2.8277   -2.0817   -1.0158 C   0  0  0  0  0  0  0  0  0  0  0  0
    3.2633   -3.1067   -1.3448 N   0  0  0  0  0  0  0  0  0  0  0  0
   -2.5689   -1.4784   -0.0550 C   0  0  0  0  0  0  0  0  0  0  0  0
   -3.6424   -0.5219    0.3604 C   0  0  0  0  0  0  0  0  0  0  0  0
   -2.9094    0.8043    0.6154 C   0  0  0  0  0  0  0  0  0  0  0  0
    5.0398   -0.2697   -0.6211 H   0  0  0  0  0  0  0  0  0  0  0  0
    4.8160    1.5150   -0.1851 H   0  0  0  0  0  0  0  0  0  0  0  0
    2.3385    2.0036    0.6922 H   0  0  0  0  0  0  0  0  0  0  0  0
   -1.3408    2.8577    0.8752 H   0  0  0  0  0  0  0  0  0  0  0  0
   -0.0524   -2.3724   -0.6772 H   0  0  0  0  0  0  0  0  0  0  0  0
   -2.7600   -2.5116   -0.3055 H   0  0  0  0  0  0  0  0  0  0  0  0
   -4.3915   -0.4112   -0.4305 H   0  0  0  0  0  0  0  0  0  0  0  0
   -4.1465   -0.8727    1.2669 H   0  0  0  0  0  0  0  0  0  0  0  0
   -3.0415    1.1225    1.6552 H   0  0  0  0  0  0  0  0  0  0  0  0
   -3.2962    1.5897   -0.0431 H   0  0  0  0  0  0  0  0  0  0  0  0
  1  2  2  3
  2  3  1  0
  3  4  1  0
  4  5  1  0
  5  6  1  0
  5  7  2  0
  7  8  1  0
  8  9  1  0
  9 10  1  0
 10 11  2  0
 11 12  1  0
 12 13  3  0
  8 14  2  0
 14 15  1  0
 15 16  1  0
 11  2  1  0
 10  4  1  0
 16  7  1  0
  1 17  1  0
  1 18  1  0
  3 19  1  0
  6 20  1  0
  9 21  1  0
 14 22  1  0
 15 23  1  0
 15 24  1  0
 16 25  1  0
 16 26  1  0
M  END
>  <enum_code>  
T

>  <uuid>  
d50fb155-3a6a-4644-8778-0b5426e14769

>  <sha256>  
39e1b0cb6462242f67993cb5678037f9b85a03408faf08abbd395fb60bce143b

>  <std_smi>  
Cc1nn2c(O)c3c(nc2c1C#N)CCC3

>  <enum_smi>  
C=C1NN2C(O)=C3CCC=C3NC2=C1C#N

$$$$
91181622-e44b-4288-aa7b-809b33940e56
     RDKit          3D

 26 28  0  0  0  0  0  0  0  0999 V2000
   -4.2107    1.3103   -0.8252 C   0  0  0  0  0  0  0  0  0  0  0  0
   -2.9396    1.0069   -0.5458 C   0  0  0  0  0  0  0  0  0  0  0  0
   -1.8109    1.3892   -1.2690 N   0  0  0  0  0  0  0  0  0  0  0  0
   -0.7334    0.7073   -0.7620 N   0  0  0  0  0  0  0  0  0  0  0  0
    0.5939    0.7344   -1.1393 C   0  0  0  0  0  0  0  0  0  0  0  0
    0.9275    1.4547   -2.2635 O   0  0  0  0  0  0  0  0  0  0  0  0
    1.4907    0.0649   -0.4015 C   0  0  0  0  0  0  0  0  0  0  0  0
    0.9523   -0.6985    0.7729 C   0  0  0  0  0  0  0  0  0  0  0  0
   -0.2758   -0.7521    1.1860 N   0  0  0  0  0  0  0  0  0  0  0  0
   -1.1198   -0.0116    0.3897 C   0  0  0  0  0  0  0  0  0  0  0  0
   -2.4514    0.1548    0.5543 C   0  0  0  0  0  0  0  0  0  0  0  0
   -3.2420   -0.4049    1.5795 C   0  0  0  0  0  0  0  0  0  0  0  0
   -3.9325   -0.8490    2.4018 N   0  0  0  0  0  0  0  0  0  0  0  0
    2.0726   -1.4274    1.4509 C   0  0  0  0  0  0  0  0  0  0  0  0
    3.1362   -1.4512    0.3490 C   0  0  0  0  0  0  0  0  0  0  0  0
    2.9556   -0.1692   -0.4709 C   0  0  0  0  0  0  0  0  0  0  0  0
   -5.0366    0.9542   -0.2174 H   0  0  0  0  0  0  0  0  0  0  0  0
   -4.4583    1.9412   -1.6724 H   0  0  0  0  0  0  0  0  0  0  0  0
   -1.9190    1.3812   -2.2808 H   0  0  0  0  0  0  0  0  0  0  0  0
    1.8930    1.4435   -2.3576 H   0  0  0  0  0  0  0  0  0  0  0  0
    1.7748   -2.4332    1.7569 H   0  0  0  0  0  0  0  0  0  0  0  0
    2.4014   -0.8517    2.3215 H   0  0  0  0  0  0  0  0  0  0  0  0
    4.1467   -1.5331    0.7616 H   0  0  0  0  0  0  0  0  0  0  0  0
    2.9741   -2.3248   -0.2963 H   0  0  0  0  0  0  0  0  0  0  0  0
    3.3198   -0.2977   -1.4939 H   0  0  0  0  0  0  0  0  0  0  0  0
    3.4914    0.6618    0.0003 H   0  0  0  0  0  0  0  0  0  0  0  0
  1  2  2  3
  2  3  1  0
  3  4  1  0
  4  5  1  0
  5  6  1  0
  5  7  2  0
  7  8  1  0
  8  9  2  0
  9 10  1  0
 10 11  2  0
 11 12  1  0
 12 13  3  0
  8 14  1  0
 14 15  1  0
 15 16  1  0
 11  2  1  0
 10  4  1  0
 16  7  1  0
  1 17  1  0
  1 18  1  0
  3 19  1  0
  6 20  1  0
 14 21  1  0
 14 22  1  0
 15 23  1  0
 15 24  1  0
 16 25  1  0
 16 26  1  0
M  END
>  <enum_code>  
T

>  <uuid>  
91181622-e44b-4288-aa7b-809b33940e56

>  <sha256>  
39e1b0cb6462242f67993cb5678037f9b85a03408faf08abbd395fb60bce143b

>  <std_smi>  
Cc1nn2c(O)c3c(nc2c1C#N)CCC3

>  <enum_smi>  
C=C1NN2C(O)=C3CCCC3=NC2=C1C#N

$$$$
db91abe7-bb73-4197-a249-99ceba10a115
     RDKit          3D

 26 28  0  0  0  0  0  0  0  0999 V2000
    4.2845    0.5727    0.5650 C   0  0  0  0  0  0  0  0  0  0  0  0
    3.0160    0.3492    0.1964 C   0  0  0  0  0  0  0  0  0  0  0  0
    2.1071    1.3324   -0.1415 N   0  0  0  0  0  0  0  0  0  0  0  0
    0.8424    0.7809   -0.1701 N   0  0  0  0  0  0  0  0  0  0  0  0
   -0.3124    1.5156   -0.3403 C   0  0  0  0  0  0  0  0  0  0  0  0
   -0.3961    2.7344   -0.4149 O   0  0  0  0  0  0  0  0  0  0  0  0
   -1.4823    0.6296   -0.4058 C   0  0  0  0  0  0  0  0  0  0  0  0
   -1.3238   -0.6954   -0.2993 C   0  0  0  0  0  0  0  0  0  0  0  0
   -0.1423   -1.3697   -0.1243 N   0  0  0  0  0  0  0  0  0  0  0  0
    0.9007   -0.5984   -0.0539 C   0  0  0  0  0  0  0  0  0  0  0  0
    2.3364   -1.0279    0.1380 C   0  0  0  0  0  0  0  0  0  0  0  0
    2.4885   -1.7842    1.3822 C   0  0  0  0  0  0  0  0  0  0  0  0
    2.6456   -2.3815    2.3665 N   0  0  0  0  0  0  0  0  0  0  0  0
   -2.6378   -1.3998   -0.3914 C   0  0  0  0  0  0  0  0  0  0  0  0
   -3.6409   -0.2491   -0.2280 C   0  0  0  0  0  0  0  0  0  0  0  0
   -2.8931    1.0426   -0.5812 C   0  0  0  0  0  0  0  0  0  0  0  0
    4.6949    1.5777    0.5957 H   0  0  0  0  0  0  0  0  0  0  0  0
    4.9540   -0.2380    0.8389 H   0  0  0  0  0  0  0  0  0  0  0  0
    2.1859    2.2266    0.3463 H   0  0  0  0  0  0  0  0  0  0  0  0
    2.6617   -1.5911   -0.7421 H   0  0  0  0  0  0  0  0  0  0  0  0
   -2.7676   -2.1478    0.3964 H   0  0  0  0  0  0  0  0  0  0  0  0
   -2.7452   -1.8844   -1.3676 H   0  0  0  0  0  0  0  0  0  0  0  0
   -4.5314   -0.3906   -0.8491 H   0  0  0  0  0  0  0  0  0  0  0  0
   -3.9799   -0.2037    0.8155 H   0  0  0  0  0  0  0  0  0  0  0  0
   -3.1819    1.8595    0.0863 H   0  0  0  0  0  0  0  0  0  0  0  0
   -3.0831    1.3404   -1.6175 H   0  0  0  0  0  0  0  0  0  0  0  0
  1  2  2  3
  2  3  1  0
  3  4  1  0
  4  5  1  0
  5  6  2  0
  5  7  1  0
  7  8  2  0
  8  9  1  0
  9 10  2  0
 10 11  1  0
 11 12  1  0
 12 13  3  0
  8 14  1  0
 14 15  1  0
 15 16  1  0
 11  2  1  0
 10  4  1  0
 16  7  1  0
  1 17  1  0
  1 18  1  0
  3 19  1  0
 11 20  1  0
 14 21  1  0
 14 22  1  0
 15 23  1  0
 15 24  1  0
 16 25  1  0
 16 26  1  0
M  END
>  <enum_code>  
T

>  <uuid>  
db91abe7-bb73-4197-a249-99ceba10a115

>  <sha256>  
39e1b0cb6462242f67993cb5678037f9b85a03408faf08abbd395fb60bce143b

>  <std_smi>  
Cc1nn2c(O)c3c(nc2c1C#N)CCC3

>  <enum_smi>  
C=C1Nn2c(nc3c(c2=O)CCC3)C1C#N

$$$$
19cc9512-616f-4fbd-b27c-987dbe3b8f5a
     RDKit          3D

 26 28  0  0  0  0  0  0  0  0999 V2000
    4.0215   -0.0990   -1.2649 C   0  0  0  0  0  0  0  0  0  0  0  0
    2.6353    0.0301   -0.7262 C   0  0  0  0  0  0  0  0  0  0  0  0
    1.5343   -0.3250   -1.5379 N   0  0  0  0  0  0  0  0  0  0  0  0
    0.4075   -0.1915   -0.7660 N   0  0  0  0  0  0  0  0  0  0  0  0
   -0.9242   -0.3738   -1.0493 C   0  0  0  0  0  0  0  0  0  0  0  0
   -1.2969   -0.7365   -2.3148 O   0  0  0  0  0  0  0  0  0  0  0  0
   -1.8014   -0.1522   -0.0628 C   0  0  0  0  0  0  0  0  0  0  0  0
   -1.3326    0.2861    1.2401 C   0  0  0  0  0  0  0  0  0  0  0  0
   -0.0030    0.5138    1.5012 N   0  0  0  0  0  0  0  0  0  0  0  0
    0.7916    0.2733    0.4980 C   0  0  0  0  0  0  0  0  0  0  0  0
    2.2698    0.4388    0.5111 C   0  0  0  0  0  0  0  0  0  0  0  0
    3.0604    0.8530    1.5939 C   0  0  0  0  0  0  0  0  0  0  0  0
    3.7643    1.1837    2.4559 N   0  0  0  0  0  0  0  0  0  0  0  0
   -2.3553    0.4431    2.0788 C   0  0  0  0  0  0  0  0  0  0  0  0
   -3.6606    0.1183    1.4203 C   0  0  0  0  0  0  0  0  0  0  0  0
   -3.2914   -0.2540   -0.0271 C   0  0  0  0  0  0  0  0  0  0  0  0
    4.7801    0.1956   -0.5335 H   0  0  0  0  0  0  0  0  0  0  0  0
    4.1442    0.5359   -2.1483 H   0  0  0  0  0  0  0  0  0  0  0  0
    4.2210   -1.1356   -1.5550 H   0  0  0  0  0  0  0  0  0  0  0  0
    1.6656   -1.2559   -1.9422 H   0  0  0  0  0  0  0  0  0  0  0  0
   -0.5030   -0.5566   -2.8484 H   0  0  0  0  0  0  0  0  0  0  0  0
   -2.2565    0.7698    3.1034 H   0  0  0  0  0  0  0  0  0  0  0  0
   -4.1529   -0.7180    1.9276 H   0  0  0  0  0  0  0  0  0  0  0  0
   -4.3343    0.9812    1.4429 H   0  0  0  0  0  0  0  0  0  0  0  0
   -3.7537    0.4441   -0.7335 H   0  0  0  0  0  0  0  0  0  0  0  0
   -3.6297   -1.2687   -0.2631 H   0  0  0  0  0  0  0  0  0  0  0  0
  1  2  1  0
  2  3  1  0
  3  4  1  0
  4  5  1  0
  5  6  1  0
  5  7  2  0
  7  8  1  0
  8  9  1  0
  9 10  2  0
 10 11  1  0
 11 12  1  0
 12 13  3  0
  8 14  2  0
 14 15  1  0
 15 16  1  0
 11  2  2  0
 10  4  1  0
 16  7  1  0
  1 17  1  0
  1 18  1  0
  1 19  1  0
  3 20  1  0
  6 21  1  0
 14 22  1  0
 15 23  1  0
 15 24  1  0
 16 25  1  0
 16 26  1  0
M  END
>  <enum_code>  
T

>  <uuid>  
19cc9512-616f-4fbd-b27c-987dbe3b8f5a

>  <sha256>  
39e1b0cb6462242f67993cb5678037f9b85a03408faf08abbd395fb60bce143b

>  <std_smi>  
Cc1nn2c(O)c3c(nc2c1C#N)CCC3

>  <enum_smi>  
CC1=C(C#N)C2=NC3=CCCC3=C(O)N2N1

$$$$
cf300ab0-5373-44dc-aa76-273861f03e4f
     RDKit          3D

 26 28  0  0  0  0  0  0  0  0999 V2000
    4.1691    0.4746    0.7987 C   0  0  0  0  0  0  0  0  0  0  0  0
    2.7321    0.2055    0.4973 C   0  0  0  0  0  0  0  0  0  0  0  0
    1.7905    1.2190    0.6521 N   0  0  0  0  0  0  0  0  0  0  0  0
    0.5503    0.6209    0.4540 N   0  0  0  0  0  0  0  0  0  0  0  0
   -0.6557    1.2405    0.7242 C   0  0  0  0  0  0  0  0  0  0  0  0
   -0.7732    2.3995    1.1166 O   0  0  0  0  0  0  0  0  0  0  0  0
   -1.8197    0.2684    0.6127 C   0  0  0  0  0  0  0  0  0  0  0  0
   -1.4732   -0.8775   -0.3011 C   0  0  0  0  0  0  0  0  0  0  0  0
   -0.2407   -1.4699   -0.3236 N   0  0  0  0  0  0  0  0  0  0  0  0
    0.7253   -0.6901    0.0245 C   0  0  0  0  0  0  0  0  0  0  0  0
    2.1808   -0.9495    0.0735 C   0  0  0  0  0  0  0  0  0  0  0  0
    2.8004   -2.1803   -0.2012 C   0  0  0  0  0  0  0  0  0  0  0  0
    3.3556   -3.1780   -0.4097 N   0  0  0  0  0  0  0  0  0  0  0  0
   -2.4924   -1.1880   -1.1056 C   0  0  0  0  0  0  0  0  0  0  0  0
   -3.6620   -0.2881   -0.8784 C   0  0  0  0  0  0  0  0  0  0  0  0
   -3.0622    0.8555   -0.0536 C   0  0  0  0  0  0  0  0  0  0  0  0
    4.2870    0.7779    1.8441 H   0  0  0  0  0  0  0  0  0  0  0  0
    4.8000   -0.4037    0.6325 H   0  0  0  0  0  0  0  0  0  0  0  0
    4.5451    1.2816    0.1614 H   0  0  0  0  0  0  0  0  0  0  0  0
    1.8648    1.7732    1.5077 H   0  0  0  0  0  0  0  0  0  0  0  0
   -2.0468   -0.1138    1.6153 H   0  0  0  0  0  0  0  0  0  0  0  0
   -2.4713   -1.9788   -1.8424 H   0  0  0  0  0  0  0  0  0  0  0  0
   -4.0774    0.0846   -1.8192 H   0  0  0  0  0  0  0  0  0  0  0  0
   -4.4469   -0.8159   -0.3270 H   0  0  0  0  0  0  0  0  0  0  0  0
   -3.7779    1.2370    0.6826 H   0  0  0  0  0  0  0  0  0  0  0  0
   -2.8016    1.6953   -0.7112 H   0  0  0  0  0  0  0  0  0  0  0  0
  1  2  1  0
  2  3  1  0
  3  4  1  0
  4  5  1  0
  5  6  2  0
  5  7  1  0
  7  8  1  0
  8  9  1  0
  9 10  2  0
 10 11  1  0
 11 12  1  0
 12 13  3  0
  8 14  2  0
 14 15  1  0
 15 16  1  0
 11  2  2  0
 10  4  1  0
 16  7  1  0
  1 17  1  0
  1 18  1  0
  1 19  1  0
  3 20  1  0
  7 21  1  0
 14 22  1  0
 15 23  1  0
 15 24  1  0
 16 25  1  0
 16 26  1  0
M  END
>  <enum_code>  
T

>  <uuid>  
cf300ab0-5373-44dc-aa76-273861f03e4f

>  <sha256>  
39e1b0cb6462242f67993cb5678037f9b85a03408faf08abbd395fb60bce143b

>  <std_smi>  
Cc1nn2c(O)c3c(nc2c1C#N)CCC3

>  <enum_smi>  
CC1=C(C#N)C2=NC3=CCCC3C(=O)N2N1

$$$$
163c1d93-f723-4918-9bfb-3fc37b23e625
     RDKit          3D

 26 28  0  0  0  0  0  0  0  0999 V2000
    3.3722    2.5144    0.0264 C   0  0  0  0  0  0  0  0  0  0  0  0
    2.1931    1.5975    0.0150 C   0  0  0  0  0  0  0  0  0  0  0  0
    0.9588    2.0259    0.0779 N   0  0  0  0  0  0  0  0  0  0  0  0
    0.1968    0.8851    0.0206 N   0  0  0  0  0  0  0  0  0  0  0  0
   -1.1781    0.8309    0.0154 C   0  0  0  0  0  0  0  0  0  0  0  0
   -1.8787    2.0003    0.1215 O   0  0  0  0  0  0  0  0  0  0  0  0
   -1.7545   -0.3728   -0.0968 C   0  0  0  0  0  0  0  0  0  0  0  0
   -0.9312   -1.5656   -0.2138 C   0  0  0  0  0  0  0  0  0  0  0  0
    0.4433   -1.5071   -0.2213 N   0  0  0  0  0  0  0  0  0  0  0  0
    0.9114   -0.2999   -0.0954 C   0  0  0  0  0  0  0  0  0  0  0  0
    2.3573    0.0854   -0.0833 C   0  0  0  0  0  0  0  0  0  0  0  0
    3.0513   -0.4397    1.0841 C   0  0  0  0  0  0  0  0  0  0  0  0
    3.6498   -0.8141    2.0056 N   0  0  0  0  0  0  0  0  0  0  0  0
   -1.6924   -2.6539   -0.3102 C   0  0  0  0  0  0  0  0  0  0  0  0
   -3.1500   -2.3098   -0.2660 C   0  0  0  0  0  0  0  0  0  0  0  0
   -3.1923   -0.7767   -0.1305 C   0  0  0  0  0  0  0  0  0  0  0  0
    4.0184    2.2854   -0.8249 H   0  0  0  0  0  0  0  0  0  0  0  0
    3.9351    2.3785    0.9531 H   0  0  0  0  0  0  0  0  0  0  0  0
    3.0440    3.5549   -0.0421 H   0  0  0  0  0  0  0  0  0  0  0  0
   -1.1658    2.6663    0.1881 H   0  0  0  0  0  0  0  0  0  0  0  0
    2.8352   -0.1830   -1.0284 H   0  0  0  0  0  0  0  0  0  0  0  0
   -1.3097   -3.6591   -0.4058 H   0  0  0  0  0  0  0  0  0  0  0  0
   -3.6545   -2.6364   -1.1813 H   0  0  0  0  0  0  0  0  0  0  0  0
   -3.6369   -2.7925    0.5879 H   0  0  0  0  0  0  0  0  0  0  0  0
   -3.7117   -0.3290   -0.9846 H   0  0  0  0  0  0  0  0  0  0  0  0
   -3.7108   -0.4850    0.7891 H   0  0  0  0  0  0  0  0  0  0  0  0
  1  2  1  0
  2  3  2  0
  3  4  1  0
  4  5  1  0
  5  6  1  0
  5  7  2  0
  7  8  1  0
  8  9  1  0
  9 10  2  0
 10 11  1  0
 11 12  1  0
 12 13  3  0
  8 14  2  0
 14 15  1  0
 15 16  1  0
 11  2  1  0
 10  4  1  0
 16  7  1  0
  1 17  1  0
  1 18  1  0
  1 19  1  0
  6 20  1  0
 11 21  1  0
 14 22  1  0
 15 23  1  0
 15 24  1  0
 16 25  1  0
 16 26  1  0
M  END
>  <enum_code>  
T

>  <uuid>  
163c1d93-f723-4918-9bfb-3fc37b23e625

>  <sha256>  
39e1b0cb6462242f67993cb5678037f9b85a03408faf08abbd395fb60bce143b

>  <std_smi>  
Cc1nn2c(O)c3c(nc2c1C#N)CCC3

>  <enum_smi>  
CC1=NN2C(=NC3=CCCC3=C2O)C1C#N

$$$$
ce599483-2311-4e66-b18d-2046a4274bb0
     RDKit          3D

 26 28  0  0  0  0  0  0  0  0999 V2000
    3.5087    2.4222   -0.0927 C   0  0  0  0  0  0  0  0  0  0  0  0
    2.2468    1.6254   -0.0888 C   0  0  0  0  0  0  0  0  0  0  0  0
    2.0108    0.6582   -0.9260 N   0  0  0  0  0  0  0  0  0  0  0  0
    0.7629    0.1682   -0.5980 N   0  0  0  0  0  0  0  0  0  0  0  0
    0.1736   -0.9035   -1.2600 C   0  0  0  0  0  0  0  0  0  0  0  0
    0.7110   -1.5935   -2.1238 O   0  0  0  0  0  0  0  0  0  0  0  0
   -1.2815   -1.0841   -0.8531 C   0  0  0  0  0  0  0  0  0  0  0  0
   -1.4848   -0.6649    0.5761 C   0  0  0  0  0  0  0  0  0  0  0  0
   -0.8823    0.4316    1.1218 N   0  0  0  0  0  0  0  0  0  0  0  0
    0.2050    0.7840    0.5181 C   0  0  0  0  0  0  0  0  0  0  0  0
    1.1424    1.8763    0.9036 C   0  0  0  0  0  0  0  0  0  0  0  0
    0.5439    3.1891    0.7045 C   0  0  0  0  0  0  0  0  0  0  0  0
    0.1097    4.2531    0.5419 N   0  0  0  0  0  0  0  0  0  0  0  0
   -2.2777   -1.5153    1.2316 C   0  0  0  0  0  0  0  0  0  0  0  0
   -2.7085   -2.6454    0.3560 C   0  0  0  0  0  0  0  0  0  0  0  0
   -1.7559   -2.5371   -0.8388 C   0  0  0  0  0  0  0  0  0  0  0  0
    4.2227    1.9988   -0.8041 H   0  0  0  0  0  0  0  0  0  0  0  0
    3.9491    2.4097    0.9077 H   0  0  0  0  0  0  0  0  0  0  0  0
    3.2914    3.4546   -0.3774 H   0  0  0  0  0  0  0  0  0  0  0  0
   -1.9042   -0.4710   -1.5158 H   0  0  0  0  0  0  0  0  0  0  0  0
    1.5062    1.7245    1.9229 H   0  0  0  0  0  0  0  0  0  0  0  0
   -2.5674   -1.4101    2.2677 H   0  0  0  0  0  0  0  0  0  0  0  0
   -3.7527   -2.5161    0.0536 H   0  0  0  0  0  0  0  0  0  0  0  0
   -2.6001   -3.6120    0.8564 H   0  0  0  0  0  0  0  0  0  0  0  0
   -0.9148   -3.2308   -0.7086 H   0  0  0  0  0  0  0  0  0  0  0  0
   -2.2541   -2.8121   -1.7748 H   0  0  0  0  0  0  0  0  0  0  0  0
  1  2  1  0
  2  3  2  0
  3  4  1  0
  4  5  1  0
  5  6  2  0
  5  7  1  0
  7  8  1  0
  8  9  1  0
  9 10  2  0
 10 11  1  0
 11 12  1  0
 12 13  3  0
  8 14  2  0
 14 15  1  0
 15 16  1  0
 11  2  1  0
 10  4  1  0
 16  7  1  0
  1 17  1  0
  1 18  1  0
  1 19  1  0
  7 20  1  0
 11 21  1  0
 14 22  1  0
 15 23  1  0
 15 24  1  0
 16 25  1  0
 16 26  1  0
M  END
>  <enum_code>  
T

>  <uuid>  
ce599483-2311-4e66-b18d-2046a4274bb0

>  <sha256>  
39e1b0cb6462242f67993cb5678037f9b85a03408faf08abbd395fb60bce143b

>  <std_smi>  
Cc1nn2c(O)c3c(nc2c1C#N)CCC3

>  <enum_smi>  
CC1=NN2C(=O)C3CCC=C3N=C2C1C#N

$$$$
745f615f-fd1e-405a-af51-7e2b827f77db
     RDKit          3D

 26 28  0  0  0  0  0  0  0  0999 V2000
   -4.3650    0.2344    0.2477 C   0  0  0  0  0  0  0  0  0  0  0  0
   -2.8733    0.1814    0.2484 C   0  0  0  0  0  0  0  0  0  0  0  0
   -2.1255    1.1675    0.6491 N   0  0  0  0  0  0  0  0  0  0  0  0
   -0.8232    0.7452    0.4810 N   0  0  0  0  0  0  0  0  0  0  0  0
    0.2801    1.5343    0.7668 C   0  0  0  0  0  0  0  0  0  0  0  0
    0.2850    2.6753    1.2109 O   0  0  0  0  0  0  0  0  0  0  0  0
    1.5329    0.8278    0.4546 C   0  0  0  0  0  0  0  0  0  0  0  0
    1.5046   -0.4063   -0.0601 C   0  0  0  0  0  0  0  0  0  0  0  0
    0.3872   -1.1424   -0.3500 N   0  0  0  0  0  0  0  0  0  0  0  0
   -0.7182   -0.5363   -0.0539 C   0  0  0  0  0  0  0  0  0  0  0  0
   -2.1124   -1.0266   -0.2336 C   0  0  0  0  0  0  0  0  0  0  0  0
   -2.3839   -2.1894    0.6004 C   0  0  0  0  0  0  0  0  0  0  0  0
   -2.6481   -3.1084    1.2583 N   0  0  0  0  0  0  0  0  0  0  0  0
    2.8864   -0.9209   -0.2977 C   0  0  0  0  0  0  0  0  0  0  0  0
    3.7495    0.0825    0.4795 C   0  0  0  0  0  0  0  0  0  0  0  0
    2.9049    1.3511    0.6511 C   0  0  0  0  0  0  0  0  0  0  0  0
   -4.7592   -0.4739    0.9806 H   0  0  0  0  0  0  0  0  0  0  0  0
   -4.7090    1.2401    0.5033 H   0  0  0  0  0  0  0  0  0  0  0  0
   -4.7375   -0.0302   -0.7453 H   0  0  0  0  0  0  0  0  0  0  0  0
   -2.3184   -1.2064   -1.2917 H   0  0  0  0  0  0  0  0  0  0  0  0
    3.1232   -0.9038   -1.3668 H   0  0  0  0  0  0  0  0  0  0  0  0
    3.0260   -1.9367    0.0842 H   0  0  0  0  0  0  0  0  0  0  0  0
    3.9947   -0.3318    1.4665 H   0  0  0  0  0  0  0  0  0  0  0  0
    4.6981    0.2866   -0.0279 H   0  0  0  0  0  0  0  0  0  0  0  0
    3.0529    1.7911    1.6415 H   0  0  0  0  0  0  0  0  0  0  0  0
    3.1480    2.0960   -0.1136 H   0  0  0  0  0  0  0  0  0  0  0  0
  1  2  1  0
  2  3  2  0
  3  4  1  0
  4  5  1  0
  5  6  2  0
  5  7  1  0
  7  8  2  0
  8  9  1  0
  9 10  2  0
 10 11  1  0
 11 12  1  0
 12 13  3  0
  8 14  1  0
 14 15  1  0
 15 16  1  0
 11  2  1  0
 10  4  1  0
 16  7  1  0
  1 17  1  0
  1 18  1  0
  1 19  1  0
 11 20  1  0
 14 21  1  0
 14 22  1  0
 15 23  1  0
 15 24  1  0
 16 25  1  0
 16 26  1  0
M  END
>  <enum_code>  
T

>  <uuid>  
745f615f-fd1e-405a-af51-7e2b827f77db

>  <sha256>  
39e1b0cb6462242f67993cb5678037f9b85a03408faf08abbd395fb60bce143b

>  <std_smi>  
Cc1nn2c(O)c3c(nc2c1C#N)CCC3

>  <enum_smi>  
CC1=Nn2c(nc3c(c2=O)CCC3)C1C#N

$$$$
af64f74c-500b-4461-b6ab-ce0065378c62
     RDKit          3D

 26 28  0  0  0  0  0  0  0  0999 V2000
    4.3141   -0.4860   -0.2116 C   0  0  0  0  0  0  0  0  0  0  0  0
    2.8349   -0.3918   -0.0336 C   0  0  0  0  0  0  0  0  0  0  0  0
    2.2210    0.8584    0.0011 N   0  0  0  0  0  0  0  0  0  0  0  0
    0.8542    0.6071    0.0396 N   0  0  0  0  0  0  0  0  0  0  0  0
   -0.1240    1.5736   -0.0472 C   0  0  0  0  0  0  0  0  0  0  0  0
    0.0462    2.7730   -0.2205 O   0  0  0  0  0  0  0  0  0  0  0  0
   -1.4560    0.9623    0.0628 C   0  0  0  0  0  0  0  0  0  0  0  0
   -1.5741   -0.3666    0.1808 C   0  0  0  0  0  0  0  0  0  0  0  0
   -0.5537   -1.2839    0.2047 N   0  0  0  0  0  0  0  0  0  0  0  0
    0.6250   -0.7610    0.1349 C   0  0  0  0  0  0  0  0  0  0  0  0
    1.9554   -1.4048    0.1034 C   0  0  0  0  0  0  0  0  0  0  0  0
    2.1913   -2.7897    0.1180 C   0  0  0  0  0  0  0  0  0  0  0  0
    2.4315   -3.9253    0.1214 N   0  0  0  0  0  0  0  0  0  0  0  0
   -3.0096   -0.7691    0.2715 C   0  0  0  0  0  0  0  0  0  0  0  0
   -3.7122    0.5710    0.5313 C   0  0  0  0  0  0  0  0  0  0  0  0
   -2.7555    1.6713    0.0551 C   0  0  0  0  0  0  0  0  0  0  0  0
    4.6120   -0.0260   -1.1594 H   0  0  0  0  0  0  0  0  0  0  0  0
    4.8275    0.0372    0.6016 H   0  0  0  0  0  0  0  0  0  0  0  0
    4.6667   -1.5217   -0.2176 H   0  0  0  0  0  0  0  0  0  0  0  0
    2.5068    1.5129   -0.7300 H   0  0  0  0  0  0  0  0  0  0  0  0
   -3.3428   -1.2158   -0.6712 H   0  0  0  0  0  0  0  0  0  0  0  0
   -3.1955   -1.4739    1.0875 H   0  0  0  0  0  0  0  0  0  0  0  0
   -3.8970    0.6855    1.6077 H   0  0  0  0  0  0  0  0  0  0  0  0
   -4.6843    0.6277    0.0307 H   0  0  0  0  0  0  0  0  0  0  0  0
   -2.7740    2.5295    0.7331 H   0  0  0  0  0  0  0  0  0  0  0  0
   -3.0078    2.0061   -0.9563 H   0  0  0  0  0  0  0  0  0  0  0  0
  1  2  1  0
  2  3  1  0
  3  4  1  0
  4  5  1  0
  5  6  2  0
  5  7  1  0
  7  8  2  0
  8  9  1  0
  9 10  2  0
 10 11  1  0
 11 12  1  0
 12 13  3  0
  8 14  1  0
 14 15  1  0
 15 16  1  0
 11  2  2  0
 10  4  1  0
 16  7  1  0
  1 17  1  0
  1 18  1  0
  1 19  1  0
  3 20  1  0
 14 21  1  0
 14 22  1  0
 15 23  1  0
 15 24  1  0
 16 25  1  0
 16 26  1  0
M  END
>  <enum_code>  
T

>  <uuid>  
af64f74c-500b-4461-b6ab-ce0065378c62

>  <sha256>  
39e1b0cb6462242f67993cb5678037f9b85a03408faf08abbd395fb60bce143b

>  <std_smi>  
Cc1nn2c(O)c3c(nc2c1C#N)CCC3

>  <enum_smi>  
Cc1[nH]n2c(=O)c3c(nc2c1C#N)CCC3

$$$$
40b82413-d70d-48eb-815e-a208d3bb9c02
     RDKit          3D

 26 28  0  0  0  0  0  0  0  0999 V2000
    2.5426    2.4456    2.7726 C   0  0  0  0  0  0  0  0  0  0  0  0
    1.7163    1.6155    1.8583 C   0  0  0  0  0  0  0  0  0  0  0  0
    0.3793    1.6487    1.9484 N   0  0  0  0  0  0  0  0  0  0  0  0
   -0.0474    0.7880    0.9836 N   0  0  0  0  0  0  0  0  0  0  0  0
   -1.4121    0.5208    0.7328 C   0  0  0  0  0  0  0  0  0  0  0  0
   -2.3145    1.0468    1.3691 O   0  0  0  0  0  0  0  0  0  0  0  0
   -1.6126   -0.4473   -0.3632 C   0  0  0  0  0  0  0  0  0  0  0  0
   -0.5606   -0.9716   -1.0041 C   0  0  0  0  0  0  0  0  0  0  0  0
    0.7445   -0.6686   -0.7082 N   0  0  0  0  0  0  0  0  0  0  0  0
    1.0161    0.2154    0.2891 C   0  0  0  0  0  0  0  0  0  0  0  0
    2.1601    0.7374    0.8397 C   0  0  0  0  0  0  0  0  0  0  0  0
    3.4981    0.4456    0.4546 C   0  0  0  0  0  0  0  0  0  0  0  0
    4.5862    0.2017    0.1340 N   0  0  0  0  0  0  0  0  0  0  0  0
   -0.9942   -1.9220   -2.0695 C   0  0  0  0  0  0  0  0  0  0  0  0
   -2.4967   -1.6219   -2.1815 C   0  0  0  0  0  0  0  0  0  0  0  0
   -2.9137   -0.9376   -0.8722 C   0  0  0  0  0  0  0  0  0  0  0  0
    3.2044    1.8107    3.3703 H   0  0  0  0  0  0  0  0  0  0  0  0
    1.9209    3.0277    3.4608 H   0  0  0  0  0  0  0  0  0  0  0  0
    3.1584    3.1461    2.1994 H   0  0  0  0  0  0  0  0  0  0  0  0
    1.4674   -1.1293   -1.2613 H   0  0  0  0  0  0  0  0  0  0  0  0
   -0.8183   -2.9566   -1.7566 H   0  0  0  0  0  0  0  0  0  0  0  0
   -0.4867   -1.7439   -3.0223 H   0  0  0  0  0  0  0  0  0  0  0  0
   -2.6721   -0.9398   -3.0240 H   0  0  0  0  0  0  0  0  0  0  0  0
   -3.0814   -2.5273   -2.3747 H   0  0  0  0  0  0  0  0  0  0  0  0
   -3.6267   -0.1297   -1.0600 H   0  0  0  0  0  0  0  0  0  0  0  0
   -3.3573   -1.6546   -0.1739 H   0  0  0  0  0  0  0  0  0  0  0  0
  1  2  1  0
  2  3  2  0
  3  4  1  0
  4  5  1  0
  5  6  2  0
  5  7  1  0
  7  8  2  0
  8  9  1  0
  9 10  1  0
 10 11  2  0
 11 12  1  0
 12 13  3  0
  8 14  1  0
 14 15  1  0
 15 16  1  0
 11  2  1  0
 10  4  1  0
 16  7  1  0
  1 17  1  0
  1 18  1  0
  1 19  1  0
  9 20  1  0
 14 21  1  0
 14 22  1  0
 15 23  1  0
 15 24  1  0
 16 25  1  0
 16 26  1  0
M  END
>  <enum_code>  
T

>  <uuid>  
40b82413-d70d-48eb-815e-a208d3bb9c02

>  <sha256>  
39e1b0cb6462242f67993cb5678037f9b85a03408faf08abbd395fb60bce143b

>  <std_smi>  
Cc1nn2c(O)c3c(nc2c1C#N)CCC3

>  <enum_smi>  
Cc1nn2c(=O)c3c([nH]c2c1C#N)CCC3

$$$$
c37a530a-6b91-4672-8f7a-80e7b966985d
     RDKit          3D

 26 28  0  0  0  0  0  0  0  0999 V2000
    4.4438    0.3728    0.0633 C   0  0  0  0  0  0  0  0  0  0  0  0
    2.9672    0.2100    0.0676 C   0  0  0  0  0  0  0  0  0  0  0  0
    2.1810    1.1810   -0.4125 N   0  0  0  0  0  0  0  0  0  0  0  0
    0.9230    0.6937   -0.2719 N   0  0  0  0  0  0  0  0  0  0  0  0
   -0.2067    1.3825   -0.7283 C   0  0  0  0  0  0  0  0  0  0  0  0
   -0.1527    2.5333   -1.1399 O   0  0  0  0  0  0  0  0  0  0  0  0
   -1.4029    0.4855   -0.7573 C   0  0  0  0  0  0  0  0  0  0  0  0
   -1.3623   -0.6324    0.2412 C   0  0  0  0  0  0  0  0  0  0  0  0
   -0.2773   -1.1625    0.7091 N   0  0  0  0  0  0  0  0  0  0  0  0
    0.8877   -0.5488    0.3497 C   0  0  0  0  0  0  0  0  0  0  0  0
    2.2112   -0.8818    0.5518 C   0  0  0  0  0  0  0  0  0  0  0  0
    2.6968   -2.0745    1.1604 C   0  0  0  0  0  0  0  0  0  0  0  0
    3.1325   -3.0346    1.6458 N   0  0  0  0  0  0  0  0  0  0  0  0
   -2.7294   -1.0577    0.6945 C   0  0  0  0  0  0  0  0  0  0  0  0
   -3.6249   -0.0645   -0.0451 C   0  0  0  0  0  0  0  0  0  0  0  0
   -2.7269    1.1304   -0.3748 C   0  0  0  0  0  0  0  0  0  0  0  0
    4.8295    0.3762    1.0878 H   0  0  0  0  0  0  0  0  0  0  0  0
    4.7438    1.3114   -0.4143 H   0  0  0  0  0  0  0  0  0  0  0  0
    4.9171   -0.4492   -0.4830 H   0  0  0  0  0  0  0  0  0  0  0  0
   -1.4691    0.0368   -1.7568 H   0  0  0  0  0  0  0  0  0  0  0  0
   -2.8030   -0.9348    1.7790 H   0  0  0  0  0  0  0  0  0  0  0  0
   -2.9365   -2.0942    0.4188 H   0  0  0  0  0  0  0  0  0  0  0  0
   -4.4959    0.2252    0.5503 H   0  0  0  0  0  0  0  0  0  0  0  0
   -3.9927   -0.5190   -0.9733 H   0  0  0  0  0  0  0  0  0  0  0  0
   -2.6131    1.7780    0.5037 H   0  0  0  0  0  0  0  0  0  0  0  0
   -3.1401    1.7372   -1.1866 H   0  0  0  0  0  0  0  0  0  0  0  0
  1  2  1  0
  2  3  2  0
  3  4  1  0
  4  5  1  0
  5  6  2  0
  5  7  1  0
  7  8  1  0
  8  9  2  0
  9 10  1  0
 10 11  2  0
 11 12  1  0
 12 13  3  0
  8 14  1  0
 14 15  1  0
 15 16  1  0
 11  2  1  0
 10  4  1  0
 16  7  1  0
  1 17  1  0
  1 18  1  0
  1 19  1  0
  7 20  1  0
 14 21  1  0
 14 22  1  0
 15 23  1  0
 15 24  1  0
 16 25  1  0
 16 26  1  0
M  END
>  <enum_code>  
T

>  <uuid>  
c37a530a-6b91-4672-8f7a-80e7b966985d

>  <sha256>  
39e1b0cb6462242f67993cb5678037f9b85a03408faf08abbd395fb60bce143b

>  <std_smi>  
Cc1nn2c(O)c3c(nc2c1C#N)CCC3

>  <enum_smi>  
Cc1nn2c(c1C#N)N=C1CCCC1C2=O

$$$$
22184636-3d38-48ca-83b4-132311d4184a
     RDKit          3D

 26 28  0  0  0  0  0  0  0  0999 V2000
    3.4241    0.7493   -2.4176 C   0  0  0  0  0  0  0  0  0  0  0  0
    2.2563    0.5616   -1.5181 C   0  0  0  0  0  0  0  0  0  0  0  0
    1.5681   -0.5890   -1.5437 N   0  0  0  0  0  0  0  0  0  0  0  0
    0.5844   -0.4224   -0.6125 N   0  0  0  0  0  0  0  0  0  0  0  0
   -0.4123   -1.3596   -0.2599 C   0  0  0  0  0  0  0  0  0  0  0  0
   -0.4406   -2.5906   -0.8935 O   0  0  0  0  0  0  0  0  0  0  0  0
   -1.3058   -1.0227    0.6851 C   0  0  0  0  0  0  0  0  0  0  0  0
   -1.2433    0.2817    1.3286 C   0  0  0  0  0  0  0  0  0  0  0  0
   -0.2554    1.1625    0.9534 N   0  0  0  0  0  0  0  0  0  0  0  0
    0.6624    0.8375   -0.0060 C   0  0  0  0  0  0  0  0  0  0  0  0
    1.7311    1.4796   -0.5779 C   0  0  0  0  0  0  0  0  0  0  0  0
    2.1966    2.7892   -0.2766 C   0  0  0  0  0  0  0  0  0  0  0  0
    2.5781    3.8576   -0.0323 N   0  0  0  0  0  0  0  0  0  0  0  0
   -2.2211    0.3964    2.2271 C   0  0  0  0  0  0  0  0  0  0  0  0
   -3.0674   -0.8398    2.2911 C   0  0  0  0  0  0  0  0  0  0  0  0
   -2.4524   -1.7937    1.2548 C   0  0  0  0  0  0  0  0  0  0  0  0
    3.5990   -0.1345   -3.0399 H   0  0  0  0  0  0  0  0  0  0  0  0
    3.2597    1.6031   -3.0828 H   0  0  0  0  0  0  0  0  0  0  0  0
    4.3304    0.9347   -1.8323 H   0  0  0  0  0  0  0  0  0  0  0  0
    0.3090   -2.5722   -1.5254 H   0  0  0  0  0  0  0  0  0  0  0  0
   -0.2566    2.0593    1.4337 H   0  0  0  0  0  0  0  0  0  0  0  0
   -2.3986    1.2655    2.8434 H   0  0  0  0  0  0  0  0  0  0  0  0
   -4.1091   -0.6100    2.0440 H   0  0  0  0  0  0  0  0  0  0  0  0
   -3.0388   -1.2780    3.2942 H   0  0  0  0  0  0  0  0  0  0  0  0
   -3.1854   -2.0481    0.4817 H   0  0  0  0  0  0  0  0  0  0  0  0
   -2.1124   -2.7177    1.7349 H   0  0  0  0  0  0  0  0  0  0  0  0
  1  2  1  0
  2  3  2  0
  3  4  1  0
  4  5  1  0
  5  6  1  0
  5  7  2  0
  7  8  1  0
  8  9  1  0
  9 10  1  0
 10 11  2  0
 11 12  1  0
 12 13  3  0
  8 14  2  0
 14 15  1  0
 15 16  1  0
 11  2  1  0
 10  4  1  0
 16  7  1  0
  1 17  1  0
  1 18  1  0
  1 19  1  0
  6 20  1  0
  9 21  1  0
 14 22  1  0
 15 23  1  0
 15 24  1  0
 16 25  1  0
 16 26  1  0
M  END
>  <enum_code>  
T

>  <uuid>  
22184636-3d38-48ca-83b4-132311d4184a

>  <sha256>  
39e1b0cb6462242f67993cb5678037f9b85a03408faf08abbd395fb60bce143b

>  <std_smi>  
Cc1nn2c(O)c3c(nc2c1C#N)CCC3

>  <enum_smi>  
Cc1nn2c(c1C#N)NC1=CCCC1=C2O

$$$$
5a453c67-ed0c-4fc5-838a-159bc7bcaaa5
     RDKit          3D

 26 28  0  0  0  0  0  0  0  0999 V2000
    3.1868    2.8737   -0.9673 C   0  0  0  0  0  0  0  0  0  0  0  0
    2.1271    1.8973   -0.6053 C   0  0  0  0  0  0  0  0  0  0  0  0
    0.8671    2.0920   -1.0158 N   0  0  0  0  0  0  0  0  0  0  0  0
    0.1729    1.0382   -0.5043 N   0  0  0  0  0  0  0  0  0  0  0  0
   -1.2117    0.8824   -0.7015 C   0  0  0  0  0  0  0  0  0  0  0  0
   -1.8450    1.6363   -1.4321 O   0  0  0  0  0  0  0  0  0  0  0  0
   -1.8052   -0.2099    0.1680 C   0  0  0  0  0  0  0  0  0  0  0  0
   -0.8271   -1.3132    0.4889 C   0  0  0  0  0  0  0  0  0  0  0  0
    0.4861   -0.9914    0.6898 N   0  0  0  0  0  0  0  0  0  0  0  0
    0.9978    0.1621    0.1889 C   0  0  0  0  0  0  0  0  0  0  0  0
    2.2595    0.7053    0.1444 C   0  0  0  0  0  0  0  0  0  0  0  0
    3.4419    0.1588    0.7172 C   0  0  0  0  0  0  0  0  0  0  0  0
    4.4037   -0.2943    1.1819 N   0  0  0  0  0  0  0  0  0  0  0  0
   -1.4290   -2.5052    0.4997 C   0  0  0  0  0  0  0  0  0  0  0  0
   -2.8707   -2.3900    0.1180 C   0  0  0  0  0  0  0  0  0  0  0  0
   -2.9478   -0.9842   -0.4849 C   0  0  0  0  0  0  0  0  0  0  0  0
    2.7786    3.7225   -1.5259 H   0  0  0  0  0  0  0  0  0  0  0  0
    3.6699    3.2646   -0.0661 H   0  0  0  0  0  0  0  0  0  0  0  0
    3.9494    2.3946   -1.5897 H   0  0  0  0  0  0  0  0  0  0  0  0
   -2.1399    0.2576    1.1036 H   0  0  0  0  0  0  0  0  0  0  0  0
    1.0914   -1.7617    0.9788 H   0  0  0  0  0  0  0  0  0  0  0  0
   -0.9471   -3.4492    0.7127 H   0  0  0  0  0  0  0  0  0  0  0  0
   -3.5078   -2.4882    1.0029 H   0  0  0  0  0  0  0  0  0  0  0  0
   -3.1598   -3.1471   -0.6166 H   0  0  0  0  0  0  0  0  0  0  0  0
   -3.9204   -0.5173   -0.2960 H   0  0  0  0  0  0  0  0  0  0  0  0
   -2.8207   -1.0333   -1.5747 H   0  0  0  0  0  0  0  0  0  0  0  0
  1  2  1  0
  2  3  2  0
  3  4  1  0
  4  5  1  0
  5  6  2  0
  5  7  1  0
  7  8  1  0
  8  9  1  0
  9 10  1  0
 10 11  2  0
 11 12  1  0
 12 13  3  0
  8 14  2  0
 14 15  1  0
 15 16  1  0
 11  2  1  0
 10  4  1  0
 16  7  1  0
  1 17  1  0
  1 18  1  0
  1 19  1  0
  7 20  1  0
  9 21  1  0
 14 22  1  0
 15 23  1  0
 15 24  1  0
 16 25  1  0
 16 26  1  0
M  END
>  <enum_code>  
T

>  <uuid>  
5a453c67-ed0c-4fc5-838a-159bc7bcaaa5

>  <sha256>  
39e1b0cb6462242f67993cb5678037f9b85a03408faf08abbd395fb60bce143b

>  <std_smi>  
Cc1nn2c(O)c3c(nc2c1C#N)CCC3

>  <enum_smi>  
Cc1nn2c(c1C#N)NC1=CCCC1C2=O

$$$$
aaefe786-9e4a-4599-b2d7-5ade249e68dc
     RDKit          3D

 26 28  0  0  0  0  0  0  0  0999 V2000
    4.4609    0.6895    0.5714 C   0  0  0  0  0  0  0  0  0  0  0  0
    3.0067    0.4388    0.3960 C   0  0  0  0  0  0  0  0  0  0  0  0
    2.1489    0.7917    1.3844 N   0  0  0  0  0  0  0  0  0  0  0  0
    0.8600    0.4536    0.9812 N   0  0  0  0  0  0  0  0  0  0  0  0
   -0.4245    0.5792    1.6047 C   0  0  0  0  0  0  0  0  0  0  0  0
   -0.4258    1.0929    2.7511 O   0  5  0  0  0  1  0  0  0  0  0  0
   -1.4982    0.1316    0.9167 C   0  0  0  0  0  0  0  0  0  0  0  0
   -1.4093   -0.4420   -0.4361 C   0  0  0  0  0  0  0  0  0  0  0  0
   -0.3232   -0.6204   -1.0875 N   0  3  0  0  0  4  0  0  0  0  0  0
    0.8744   -0.1653   -0.3815 C   0  0  0  0  0  0  0  0  0  0  0  0
    2.3495   -0.1543   -0.7334 C   0  0  0  0  0  0  0  0  0  0  0  0
    2.8829   -0.6442   -1.9453 C   0  0  0  0  0  0  0  0  0  0  0  0
    3.2146   -1.0713   -2.9700 N   0  0  0  0  0  0  0  0  0  0  0  0
   -2.7324   -0.8153   -0.9984 C   0  0  0  0  0  0  0  0  0  0  0  0
   -3.6565   -0.0013   -0.0826 C   0  0  0  0  0  0  0  0  0  0  0  0
   -2.9534    0.1179    1.2793 C   0  0  0  0  0  0  0  0  0  0  0  0
    4.8281    1.3600   -0.2120 H   0  0  0  0  0  0  0  0  0  0  0  0
    4.6773    1.1508    1.5405 H   0  0  0  0  0  0  0  0  0  0  0  0
    5.0185   -0.2506    0.5125 H   0  0  0  0  0  0  0  0  0  0  0  0
   -0.2639   -1.0210   -2.0194 H   0  0  0  0  0  0  0  0  0  0  0  0
   -2.8945   -1.8913   -0.8799 H   0  0  0  0  0  0  0  0  0  0  0  0
   -2.8440   -0.5288   -2.0473 H   0  0  0  0  0  0  0  0  0  0  0  0
   -3.7993    1.0013   -0.5075 H   0  0  0  0  0  0  0  0  0  0  0  0
   -4.6458   -0.4609    0.0082 H   0  0  0  0  0  0  0  0  0  0  0  0
   -3.2752    1.0200    1.8077 H   0  0  0  0  0  0  0  0  0  0  0  0
   -3.1760   -0.7602    1.8957 H   0  0  0  0  0  0  0  0  0  0  0  0
  1  2  1  0
  2  3  2  0
  3  4  1  0
  4  5  1  0
  5  6  1  0
  5  7  2  0
  7  8  1  0
  8  9  2  0
  9 10  1  0
 10 11  2  0
 11 12  1  0
 12 13  3  0
  8 14  1  0
 14 15  1  0
 15 16  1  0
 11  2  1  0
 10  4  1  0
 16  7  1  0
  1 17  1  0
  1 18  1  0
  1 19  1  0
  9 20  1  0
 14 21  1  0
 14 22  1  0
 15 23  1  0
 15 24  1  0
 16 25  1  0
 16 26  1  0
M  CHG  2   6  -1   9   1
M  END
>  <enum_code>  
M

>  <uuid>  
aaefe786-9e4a-4599-b2d7-5ade249e68dc

>  <sha256>  
39e1b0cb6462242f67993cb5678037f9b85a03408faf08abbd395fb60bce143b

>  <std_smi>  
Cc1nn2c(O)c3c(nc2c1C#N)CCC3

>  <enum_smi>  
Cc1nn2c([O-])c3c([nH+]c2c1C#N)CCC3

$$$$
29da9ebc-6015-4ede-9637-18f7e67b1404
     RDKit          3D

 26 28  0  0  0  0  0  0  0  0999 V2000
    3.7610   -0.1752   -2.1795 C   0  0  0  0  0  0  0  0  0  0  0  0
    2.4924   -0.0934   -1.4584 C   0  0  0  0  0  0  0  0  0  0  0  0
    1.5093   -1.0791   -1.4699 N   0  3  0  0  0  4  0  0  0  0  0  0
    0.4131   -0.5922   -0.6211 N   0  0  0  0  0  0  0  0  0  0  0  0
   -0.7088   -1.3224   -0.4281 C   0  0  0  0  0  0  0  0  0  0  0  0
   -0.6693   -2.4144   -1.0427 O   0  5  0  0  0  1  0  0  0  0  0  0
   -1.5760   -0.6843    0.3608 C   0  0  0  0  0  0  0  0  0  0  0  0
   -1.1863    0.6520    0.9211 C   0  0  0  0  0  0  0  0  0  0  0  0
   -0.1044    1.3430    0.7185 N   0  0  0  0  0  0  0  0  0  0  0  0
    0.7257    0.6618   -0.1054 C   0  0  0  0  0  0  0  0  0  0  0  0
    2.0324    1.0043   -0.6160 C   0  0  0  0  0  0  0  0  0  0  0  0
    2.7374    2.1952   -0.3419 C   0  0  0  0  0  0  0  0  0  0  0  0
    3.3810    3.1442   -0.1671 N   0  0  0  0  0  0  0  0  0  0  0  0
   -2.2892    1.1457    1.8125 C   0  0  0  0  0  0  0  0  0  0  0  0
   -3.0495   -0.1475    2.1197 C   0  0  0  0  0  0  0  0  0  0  0  0
   -2.9219   -1.0398    0.8814 C   0  0  0  0  0  0  0  0  0  0  0  0
    3.8233   -1.1196   -2.7275 H   0  0  0  0  0  0  0  0  0  0  0  0
    4.5972   -0.1246   -1.4766 H   0  0  0  0  0  0  0  0  0  0  0  0
    3.8411    0.6482   -2.8946 H   0  0  0  0  0  0  0  0  0  0  0  0
    1.3864   -1.9990   -1.9067 H   0  0  0  0  0  0  0  0  0  0  0  0
   -1.8974    1.6161    2.7177 H   0  0  0  0  0  0  0  0  0  0  0  0
   -2.9071    1.8583    1.2575 H   0  0  0  0  0  0  0  0  0  0  0  0
   -4.0954    0.0474    2.3768 H   0  0  0  0  0  0  0  0  0  0  0  0
   -2.5876   -0.6474    2.9815 H   0  0  0  0  0  0  0  0  0  0  0  0
   -3.0166   -2.0976    1.1423 H   0  0  0  0  0  0  0  0  0  0  0  0
   -3.6906   -0.7798    0.1456 H   0  0  0  0  0  0  0  0  0  0  0  0
  1  2  1  0
  2  3  2  0
  3  4  1  0
  4  5  1  0
  5  6  1  0
  5  7  2  0
  7  8  1  0
  8  9  2  0
  9 10  1  0
 10 11  2  0
 11 12  1  0
 12 13  3  0
  8 14  1  0
 14 15  1  0
 15 16  1  0
 11  2  1  0
 10  4  1  0
 16  7  1  0
  1 17  1  0
  1 18  1  0
  1 19  1  0
  3 20  1  0
 14 21  1  0
 14 22  1  0
 15 23  1  0
 15 24  1  0
 16 25  1  0
 16 26  1  0
M  CHG  2   3   1   6  -1
M  END
>  <enum_code>  
M

>  <uuid>  
29da9ebc-6015-4ede-9637-18f7e67b1404

>  <sha256>  
39e1b0cb6462242f67993cb5678037f9b85a03408faf08abbd395fb60bce143b

>  <std_smi>  
Cc1nn2c(O)c3c(nc2c1C#N)CCC3

>  <enum_smi>  
Cc1[nH+]n2c([O-])c3c(nc2c1C#N)CCC3

$$$$
e864d2bc-9563-4f49-9638-2dfc4e00e207
     RDKit          3D

 27 29  0  0  0  0  0  0  0  0999 V2000
    1.9288   -3.6154   -1.6671 C   0  0  0  0  0  0  0  0  0  0  0  0
    1.3148   -2.3980   -1.1317 C   0  0  0  0  0  0  0  0  0  0  0  0
    0.6981   -2.3005    0.1306 N   0  3  0  0  0  4  0  0  0  0  0  0
    0.2161   -0.8923    0.2597 N   0  0  0  0  0  0  0  0  0  0  0  0
   -0.4296   -0.3683    1.3241 C   0  0  0  0  0  0  0  0  0  0  0  0
   -0.6684   -1.1934    2.3773 O   0  0  0  0  0  0  0  0  0  0  0  0
   -0.7475    0.9207    1.2160 C   0  0  0  0  0  0  0  0  0  0  0  0
   -0.3906    1.5987   -0.0697 C   0  0  0  0  0  0  0  0  0  0  0  0
    0.2340    1.1111   -1.0948 N   0  0  0  0  0  0  0  0  0  0  0  0
    0.5487   -0.1898   -0.9097 C   0  0  0  0  0  0  0  0  0  0  0  0
    1.2332   -1.1053   -1.7901 C   0  0  0  0  0  0  0  0  0  0  0  0
    1.7341   -0.7924   -3.0738 C   0  0  0  0  0  0  0  0  0  0  0  0
    2.1699   -0.6111   -4.1315 N   0  0  0  0  0  0  0  0  0  0  0  0
   -0.8700    3.0213   -0.0278 C   0  0  0  0  0  0  0  0  0  0  0  0
   -1.9200    2.9633    1.0852 C   0  0  0  0  0  0  0  0  0  0  0  0
   -1.4456    1.9039    2.0846 C   0  0  0  0  0  0  0  0  0  0  0  0
    2.9898   -3.4438   -1.8685 H   0  0  0  0  0  0  0  0  0  0  0  0
    1.4285   -3.9126   -2.5929 H   0  0  0  0  0  0  0  0  0  0  0  0
    1.8384   -4.4312   -0.9443 H   0  0  0  0  0  0  0  0  0  0  0  0
    0.5734   -3.0087    0.8578 H   0  0  0  0  0  0  0  0  0  0  0  0
   -1.1280   -0.6731    3.0619 H   0  0  0  0  0  0  0  0  0  0  0  0
   -1.3005    3.3315   -0.9830 H   0  0  0  0  0  0  0  0  0  0  0  0
   -0.0328    3.6746    0.2364 H   0  0  0  0  0  0  0  0  0  0  0  0
   -2.0628    3.9388    1.5606 H   0  0  0  0  0  0  0  0  0  0  0  0
   -2.8865    2.6606    0.6607 H   0  0  0  0  0  0  0  0  0  0  0  0
   -0.7396    2.3429    2.7976 H   0  0  0  0  0  0  0  0  0  0  0  0
   -2.2859    1.4684    2.6323 H   0  0  0  0  0  0  0  0  0  0  0  0
  1  2  1  0
  2  3  2  0
  3  4  1  0
  4  5  1  0
  5  6  1  0
  5  7  2  0
  7  8  1  0
  8  9  2  0
  9 10  1  0
 10 11  2  0
 11 12  1  0
 12 13  3  0
  8 14  1  0
 14 15  1  0
 15 16  1  0
 11  2  1  0
 10  4  1  0
 16  7  1  0
  1 17  1  0
  1 18  1  0
  1 19  1  0
  3 20  1  0
  6 21  1  0
 14 22  1  0
 14 23  1  0
 15 24  1  0
 15 25  1  0
 16 26  1  0
 16 27  1  0
M  CHG  1   3   1
M  END
>  <enum_code>  
M

>  <uuid>  
e864d2bc-9563-4f49-9638-2dfc4e00e207

>  <sha256>  
39e1b0cb6462242f67993cb5678037f9b85a03408faf08abbd395fb60bce143b

>  <std_smi>  
Cc1nn2c(O)c3c(nc2c1C#N)CCC3

>  <enum_smi>  
Cc1[nH+]n2c(O)c3c(nc2c1C#N)CCC3

$$$$
fc9621bb-c2d3-4513-aa37-d80aa8dc7c1e
     RDKit          3D

 25 27  0  0  0  0  0  0  0  0999 V2000
    4.3727    0.6909   -0.1986 C   0  0  0  0  0  0  0  0  0  0  0  0
    2.9114    0.4478   -0.1317 C   0  0  0  0  0  0  0  0  0  0  0  0
    2.0663    1.4572   -0.3256 N   0  0  0  0  0  0  0  0  0  0  0  0
    0.7983    0.9217   -0.1981 N   0  0  0  0  0  0  0  0  0  0  0  0
   -0.4900    1.5728   -0.3016 C   0  0  0  0  0  0  0  0  0  0  0  0
   -0.5008    2.8149   -0.5449 O   0  5  0  0  0  1  0  0  0  0  0  0
   -1.5470    0.7608   -0.1119 C   0  0  0  0  0  0  0  0  0  0  0  0
   -1.3284   -0.6854    0.1392 C   0  0  0  0  0  0  0  0  0  0  0  0
   -0.1924   -1.2954    0.2452 N   0  0  0  0  0  0  0  0  0  0  0  0
    0.8985   -0.4760    0.0768 C   0  0  0  0  0  0  0  0  0  0  0  0
    2.2441   -0.7609    0.1190 C   0  0  0  0  0  0  0  0  0  0  0  0
    2.8233   -2.0362    0.3662 C   0  0  0  0  0  0  0  0  0  0  0  0
    3.3515   -3.0532    0.5627 N   0  0  0  0  0  0  0  0  0  0  0  0
   -2.6454   -1.3860    0.2700 C   0  0  0  0  0  0  0  0  0  0  0  0
   -3.5914   -0.3882   -0.4014 C   0  0  0  0  0  0  0  0  0  0  0  0
   -3.0164    1.0065   -0.1356 C   0  0  0  0  0  0  0  0  0  0  0  0
    4.8249    0.0853   -0.9906 H   0  0  0  0  0  0  0  0  0  0  0  0
    4.8479    0.4279    0.7520 H   0  0  0  0  0  0  0  0  0  0  0  0
    4.5992    1.7417   -0.4081 H   0  0  0  0  0  0  0  0  0  0  0  0
   -2.8790   -1.5184    1.3308 H   0  0  0  0  0  0  0  0  0  0  0  0
   -2.6413   -2.3541   -0.2366 H   0  0  0  0  0  0  0  0  0  0  0  0
   -4.6164   -0.4858   -0.0304 H   0  0  0  0  0  0  0  0  0  0  0  0
   -3.6143   -0.5759   -1.4831 H   0  0  0  0  0  0  0  0  0  0  0  0
   -3.3513    1.3743    0.8405 H   0  0  0  0  0  0  0  0  0  0  0  0
   -3.3241    1.7138   -0.9110 H   0  0  0  0  0  0  0  0  0  0  0  0
  1  2  1  0
  2  3  2  0
  3  4  1  0
  4  5  1  0
  5  6  1  0
  5  7  2  0
  7  8  1  0
  8  9  2  0
  9 10  1  0
 10 11  2  0
 11 12  1  0
 12 13  3  0
  8 14  1  0
 14 15  1  0
 15 16  1  0
 11  2  1  0
 10  4  1  0
 16  7  1  0
  1 17  1  0
  1 18  1  0
  1 19  1  0
 14 20  1  0
 14 21  1  0
 15 22  1  0
 15 23  1  0
 16 24  1  0
 16 25  1  0
M  CHG  1   6  -1
M  END
>  <enum_code>  
M

>  <uuid>  
fc9621bb-c2d3-4513-aa37-d80aa8dc7c1e

>  <sha256>  
39e1b0cb6462242f67993cb5678037f9b85a03408faf08abbd395fb60bce143b

>  <std_smi>  
Cc1nn2c(O)c3c(nc2c1C#N)CCC3

>  <enum_smi>  
Cc1nn2c([O-])c3c(nc2c1C#N)CCC3

$$$$
bd9c2487-db50-4966-8736-59f8ff3b9d63
     RDKit          3D

 27 29  0  0  0  0  0  0  0  0999 V2000
    1.7282    1.8684   -3.7985 C   0  0  0  0  0  0  0  0  0  0  0  0
    1.1805    1.3209   -2.5273 C   0  0  0  0  0  0  0  0  0  0  0  0
    0.3848    0.2168   -2.5576 N   0  0  0  0  0  0  0  0  0  0  0  0
    0.0221   -0.0703   -1.2650 N   0  0  0  0  0  0  0  0  0  0  0  0
   -0.7906   -1.0922   -0.7299 C   0  0  0  0  0  0  0  0  0  0  0  0
   -1.3518   -1.9938   -1.6085 O   0  0  0  0  0  0  0  0  0  0  0  0
   -0.9986   -1.1485    0.5991 C   0  0  0  0  0  0  0  0  0  0  0  0
   -0.3601   -0.1676    1.5198 C   0  0  0  0  0  0  0  0  0  0  0  0
    0.3845    0.8145    1.1620 N   0  3  0  0  0  4  0  0  0  0  0  0
    0.6081    0.8963   -0.2864 C   0  0  0  0  0  0  0  0  0  0  0  0
    1.3898    1.8276   -1.1941 C   0  0  0  0  0  0  0  0  0  0  0  0
    2.1406    2.9355   -0.7410 C   0  0  0  0  0  0  0  0  0  0  0  0
    2.7168    3.8084   -0.2457 N   0  0  0  0  0  0  0  0  0  0  0  0
   -0.6767   -0.4312    2.9481 C   0  0  0  0  0  0  0  0  0  0  0  0
   -1.1502   -1.8893    2.8578 C   0  0  0  0  0  0  0  0  0  0  0  0
   -1.7812   -2.0813    1.4686 C   0  0  0  0  0  0  0  0  0  0  0  0
    1.3936    2.9006   -3.9426 H   0  0  0  0  0  0  0  0  0  0  0  0
    2.8225    1.8575   -3.7761 H   0  0  0  0  0  0  0  0  0  0  0  0
    1.4007    1.2819   -4.6630 H   0  0  0  0  0  0  0  0  0  0  0  0
   -1.9070   -2.6482   -1.1515 H   0  0  0  0  0  0  0  0  0  0  0  0
    0.8151    1.4864    1.7998 H   0  0  0  0  0  0  0  0  0  0  0  0
    0.1930   -0.3258    3.6018 H   0  0  0  0  0  0  0  0  0  0  0  0
   -1.4816    0.2335    3.2770 H   0  0  0  0  0  0  0  0  0  0  0  0
   -1.8512   -2.1381    3.6608 H   0  0  0  0  0  0  0  0  0  0  0  0
   -0.2857   -2.5590    2.9599 H   0  0  0  0  0  0  0  0  0  0  0  0
   -2.8338   -1.7788    1.4867 H   0  0  0  0  0  0  0  0  0  0  0  0
   -1.7116   -3.1239    1.1458 H   0  0  0  0  0  0  0  0  0  0  0  0
  1  2  1  0
  2  3  2  0
  3  4  1  0
  4  5  1  0
  5  6  1  0
  5  7  2  0
  7  8  1  0
  8  9  2  0
  9 10  1  0
 10 11  2  0
 11 12  1  0
 12 13  3  0
  8 14  1  0
 14 15  1  0
 15 16  1  0
 11  2  1  0
 10  4  1  0
 16  7  1  0
  1 17  1  0
  1 18  1  0
  1 19  1  0
  6 20  1  0
  9 21  1  0
 14 22  1  0
 14 23  1  0
 15 24  1  0
 15 25  1  0
 16 26  1  0
 16 27  1  0
M  CHG  1   9   1
M  END
>  <enum_code>  
M

>  <uuid>  
bd9c2487-db50-4966-8736-59f8ff3b9d63

>  <sha256>  
39e1b0cb6462242f67993cb5678037f9b85a03408faf08abbd395fb60bce143b

>  <std_smi>  
Cc1nn2c(O)c3c(nc2c1C#N)CCC3

>  <enum_smi>  
Cc1nn2c(O)c3c([nH+]c2c1C#N)CCC3

$$$$
62d95ac5-5941-463b-995d-a6505d2962c8
     RDKit          3D

 28 30  0  0  0  0  0  0  0  0999 V2000
    3.4150    2.8624   -0.4304 C   0  0  0  0  0  0  0  0  0  0  0  0
    2.2948    1.9323   -0.2477 C   0  0  0  0  0  0  0  0  0  0  0  0
    1.1517    2.2004    0.5386 N   0  3  0  0  0  4  0  0  0  0  0  0
    0.2730    0.9668    0.4337 N   0  0  0  0  0  0  0  0  0  0  0  0
   -0.9351    0.8039    1.0385 C   0  0  0  0  0  0  0  0  0  0  0  0
   -1.3783    1.8369    1.7944 O   0  0  0  0  0  0  0  0  0  0  0  0
   -1.5515   -0.3612    0.8023 C   0  0  0  0  0  0  0  0  0  0  0  0
   -0.8849   -1.3904   -0.0492 C   0  0  0  0  0  0  0  0  0  0  0  0
    0.2482   -1.2686   -0.6471 N   0  3  0  0  0  4  0  0  0  0  0  0
    0.9106    0.0199   -0.3979 C   0  0  0  0  0  0  0  0  0  0  0  0
    2.1622    0.6000   -0.8282 C   0  0  0  0  0  0  0  0  0  0  0  0
    3.0810   -0.0543   -1.6743 C   0  0  0  0  0  0  0  0  0  0  0  0
    3.7579   -0.6821   -2.3681 N   0  0  0  0  0  0  0  0  0  0  0  0
   -1.6910   -2.6371   -0.1568 C   0  0  0  0  0  0  0  0  0  0  0  0
   -2.6324   -2.4625    1.0458 C   0  0  0  0  0  0  0  0  0  0  0  0
   -2.8475   -0.9530    1.2488 C   0  0  0  0  0  0  0  0  0  0  0  0
    3.2322    3.7848    0.1278 H   0  0  0  0  0  0  0  0  0  0  0  0
    3.5268    3.1103   -1.4895 H   0  0  0  0  0  0  0  0  0  0  0  0
    4.3408    2.4096   -0.0650 H   0  0  0  0  0  0  0  0  0  0  0  0
    0.9097    3.0360    1.0874 H   0  0  0  0  0  0  0  0  0  0  0  0
   -2.2525    1.6150    2.1712 H   0  0  0  0  0  0  0  0  0  0  0  0
    0.6792   -1.9900   -1.2299 H   0  0  0  0  0  0  0  0  0  0  0  0
   -2.2430   -2.6393   -1.1020 H   0  0  0  0  0  0  0  0  0  0  0  0
   -1.0848   -3.5425   -0.0698 H   0  0  0  0  0  0  0  0  0  0  0  0
   -2.1583   -2.8854    1.9417 H   0  0  0  0  0  0  0  0  0  0  0  0
   -3.5792   -2.9917    0.8984 H   0  0  0  0  0  0  0  0  0  0  0  0
   -3.6612   -0.5977    0.6074 H   0  0  0  0  0  0  0  0  0  0  0  0
   -3.0832   -0.7225    2.2915 H   0  0  0  0  0  0  0  0  0  0  0  0
  1  2  1  0
  2  3  2  0
  3  4  1  0
  4  5  1  0
  5  6  1  0
  5  7  2  0
  7  8  1  0
  8  9  2  0
  9 10  1  0
 10 11  2  0
 11 12  1  0
 12 13  3  0
  8 14  1  0
 14 15  1  0
 15 16  1  0
 11  2  1  0
 10  4  1  0
 16  7  1  0
  1 17  1  0
  1 18  1  0
  1 19  1  0
  3 20  1  0
  6 21  1  0
  9 22  1  0
 14 23  1  0
 14 24  1  0
 15 25  1  0
 15 26  1  0
 16 27  1  0
 16 28  1  0
M  CHG  2   3   1   9   1
M  END
>  <enum_code>  
M

>  <uuid>  
62d95ac5-5941-463b-995d-a6505d2962c8

>  <sha256>  
39e1b0cb6462242f67993cb5678037f9b85a03408faf08abbd395fb60bce143b

>  <std_smi>  
Cc1nn2c(O)c3c(nc2c1C#N)CCC3

>  <enum_smi>  
Cc1[nH+]n2c(O)c3c([nH+]c2c1C#N)CCC3

$$$$
a4c1a0f5-d8ad-4cc8-a694-54faea3fb436
     RDKit          3D

 25 26  0  0  0  0  0  0  0  0999 V2000
   -0.4711    2.3520   -0.7863 C   0  0  0  0  0  0  0  0  0  0  0  0
   -0.5874    1.8634    0.5519 O   0  0  0  0  0  0  0  0  0  0  0  0
   -1.2802    0.6750    0.5731 C   0  0  0  0  0  0  0  0  0  0  0  0
   -2.6679    0.6925    0.7911 C   0  0  0  0  0  0  0  0  0  0  0  0
   -3.5298    2.1736    1.0147 Cl  0  0  0  0  0  0  0  0  0  0  0  0
   -3.3903   -0.4985    0.8334 C   0  0  0  0  0  0  0  0  0  0  0  0
   -2.7212   -1.7075    0.6791 C   0  0  0  0  0  0  0  0  0  0  0  0
   -3.6056   -3.1828    0.7353 Cl  0  0  0  0  0  0  0  0  0  0  0  0
   -1.3381   -1.7408    0.4906 C   0  0  0  0  0  0  0  0  0  0  0  0
   -0.5946   -0.5505    0.4424 C   0  0  0  0  0  0  0  0  0  0  0  0
    0.8593   -0.6188    0.2840 C   0  0  0  0  0  0  0  0  0  0  0  0
    1.8844    0.0848    0.8891 C   0  0  0  0  0  0  0  0  0  0  0  0
    3.0716   -0.4161    0.3266 C   0  0  0  0  0  0  0  0  0  0  0  0
    4.2960    0.0094    0.6538 N   0  0  0  0  0  0  0  0  0  0  0  0
    2.8359   -1.3555   -0.5802 N   0  0  0  0  0  0  0  0  0  0  0  0
    1.4993   -1.4693   -0.5831 N   0  0  0  0  0  0  0  0  0  0  0  0
    0.0606    3.3074   -0.7470 H   0  0  0  0  0  0  0  0  0  0  0  0
   -1.4540    2.5298   -1.2353 H   0  0  0  0  0  0  0  0  0  0  0  0
    0.1097    1.6677   -1.4135 H   0  0  0  0  0  0  0  0  0  0  0  0
   -4.4648   -0.4833    0.9950 H   0  0  0  0  0  0  0  0  0  0  0  0
   -0.8413   -2.7058    0.4143 H   0  0  0  0  0  0  0  0  0  0  0  0
    1.7800    0.8513    1.6437 H   0  0  0  0  0  0  0  0  0  0  0  0
    5.0430   -0.2621    0.0239 H   0  0  0  0  0  0  0  0  0  0  0  0
    4.4244    0.9260    1.0634 H   0  0  0  0  0  0  0  0  0  0  0  0
    1.0822   -2.1417   -1.2165 H   0  0  0  0  0  0  0  0  0  0  0  0
  1  2  1  0
  2  3  1  0
  3  4  2  0
  4  5  1  0
  4  6  1  0
  6  7  2  0
  7  8  1  0
  7  9  1  0
  9 10  2  0
 10 11  1  0
 11 12  2  0
 12 13  1  0
 13 14  1  0
 13 15  2  0
 15 16  1  0
 10  3  1  0
 16 11  1  0
  1 17  1  0
  1 18  1  0
  1 19  1  0
  6 20  1  0
  9 21  1  0
 12 22  1  0
 14 23  1  0
 14 24  1  0
 16 25  1  0
M  END
>  <enum_code>  
B

>  <uuid>  
a4c1a0f5-d8ad-4cc8-a694-54faea3fb436

>  <sha256>  
0220565b592d6bbf24b09234e18ce1e3bcd7b2483639a8f09b309f48b2132b18

>  <std_smi>  
COc1c(Cl)cc(Cl)cc1-c1cc(N)n[nH]1

>  <enum_smi>  
COc1c(Cl)cc(Cl)cc1-c1cc(N)n[nH]1

$$$$
b1677a49-2a8d-45d3-b042-2587fc1b694c
     RDKit          3D

 25 26  0  0  0  0  0  0  0  0999 V2000
   -1.4019   -2.3342   -0.4306 C   0  0  0  0  0  0  0  0  0  0  0  0
   -1.3885   -1.1126   -1.1762 O   0  0  0  0  0  0  0  0  0  0  0  0
   -1.4644   -0.0328   -0.3251 C   0  0  0  0  0  0  0  0  0  0  0  0
   -2.7315    0.5008   -0.0237 C   0  0  0  0  0  0  0  0  0  0  0  0
   -4.1802   -0.1799   -0.6772 Cl  0  0  0  0  0  0  0  0  0  0  0  0
   -2.8519    1.6098    0.8088 C   0  0  0  0  0  0  0  0  0  0  0  0
   -1.7042    2.1996    1.3205 C   0  0  0  0  0  0  0  0  0  0  0  0
   -1.8393    3.5767    2.3442 Cl  0  0  0  0  0  0  0  0  0  0  0  0
   -0.4392    1.6985    1.0026 C   0  0  0  0  0  0  0  0  0  0  0  0
   -0.2868    0.5736    0.1692 C   0  0  0  0  0  0  0  0  0  0  0  0
    1.0751    0.1085   -0.1784 C   0  0  0  0  0  0  0  0  0  0  0  0
    2.2228    0.3931    0.4750 C   0  0  0  0  0  0  0  0  0  0  0  0
    3.2528   -0.2635   -0.3760 C   0  0  0  0  0  0  0  0  0  0  0  0
    4.4976   -0.3750   -0.0740 N   0  0  0  0  0  0  0  0  0  0  0  0
    2.6640   -0.7763   -1.5116 N   0  0  0  0  0  0  0  0  0  0  0  0
    1.3139   -0.6934   -1.2978 N   0  0  0  0  0  0  0  0  0  0  0  0
   -2.3501   -2.4660    0.1006 H   0  0  0  0  0  0  0  0  0  0  0  0
   -1.2946   -3.1588   -1.1415 H   0  0  0  0  0  0  0  0  0  0  0  0
   -0.5668   -2.3854    0.2763 H   0  0  0  0  0  0  0  0  0  0  0  0
   -3.8312    2.0161    1.0466 H   0  0  0  0  0  0  0  0  0  0  0  0
    0.4308    2.2157    1.4011 H   0  0  0  0  0  0  0  0  0  0  0  0
    2.4141    0.9559    1.3666 H   0  0  0  0  0  0  0  0  0  0  0  0
    4.6873    0.0745    0.8259 H   0  0  0  0  0  0  0  0  0  0  0  0
    3.0734   -1.6500   -1.8344 H   0  0  0  0  0  0  0  0  0  0  0  0
    0.6988   -0.4950   -2.0907 H   0  0  0  0  0  0  0  0  0  0  0  0
  1  2  1  0
  2  3  1  0
  3  4  2  0
  4  5  1  0
  4  6  1  0
  6  7  2  0
  7  8  1  0
  7  9  1  0
  9 10  2  0
 10 11  1  0
 11 12  2  0
 12 13  1  0
 13 14  2  3
 13 15  1  0
 15 16  1  0
 10  3  1  0
 16 11  1  0
  1 17  1  0
  1 18  1  0
  1 19  1  0
  6 20  1  0
  9 21  1  0
 12 22  1  0
 14 23  1  0
 15 24  1  0
 16 25  1  0
M  END
>  <enum_code>  
T

>  <uuid>  
b1677a49-2a8d-45d3-b042-2587fc1b694c

>  <sha256>  
0220565b592d6bbf24b09234e18ce1e3bcd7b2483639a8f09b309f48b2132b18

>  <std_smi>  
COc1c(Cl)cc(Cl)cc1-c1cc(N)n[nH]1

>  <enum_smi>  
COc1c(Cl)cc(Cl)cc1-c1cc(=N)[nH][nH]1

$$$$
6d9aac0b-8ee4-4250-b6e9-41c98e48386b
     RDKit          3D

 25 26  0  0  0  0  0  0  0  0999 V2000
   -1.3320   -2.2420   -0.2812 C   0  0  0  0  0  0  0  0  0  0  0  0
   -1.0539   -1.1851   -1.2042 O   0  0  0  0  0  0  0  0  0  0  0  0
   -1.3976    0.0288   -0.6570 C   0  0  0  0  0  0  0  0  0  0  0  0
   -2.6766    0.5545   -0.9065 C   0  0  0  0  0  0  0  0  0  0  0  0
   -3.8221   -0.2866   -1.8912 Cl  0  0  0  0  0  0  0  0  0  0  0  0
   -3.0583    1.7799   -0.3617 C   0  0  0  0  0  0  0  0  0  0  0  0
   -2.1562    2.4888    0.4238 C   0  0  0  0  0  0  0  0  0  0  0  0
   -2.6235    3.9992    1.1030 Cl  0  0  0  0  0  0  0  0  0  0  0  0
   -0.8739    1.9937    0.6545 C   0  0  0  0  0  0  0  0  0  0  0  0
   -0.4695    0.7654    0.1025 C   0  0  0  0  0  0  0  0  0  0  0  0
    0.9041    0.3112    0.3347 C   0  0  0  0  0  0  0  0  0  0  0  0
    1.7626   -0.3960   -0.5535 C   0  0  0  0  0  0  0  0  0  0  0  0
    2.9373   -0.5774    0.1294 C   0  0  0  0  0  0  0  0  0  0  0  0
    4.0902   -1.1786   -0.2154 N   0  0  0  0  0  0  0  0  0  0  0  0
    2.7511    0.0227    1.3417 N   0  0  0  0  0  0  0  0  0  0  0  0
    1.5310    0.5644    1.4975 N   0  0  0  0  0  0  0  0  0  0  0  0
   -2.3962   -2.2819   -0.0257 H   0  0  0  0  0  0  0  0  0  0  0  0
   -0.7304   -2.1473    0.6289 H   0  0  0  0  0  0  0  0  0  0  0  0
   -1.0648   -3.1857   -0.7659 H   0  0  0  0  0  0  0  0  0  0  0  0
   -4.0512    2.1792   -0.5499 H   0  0  0  0  0  0  0  0  0  0  0  0
   -0.1751    2.5702    1.2590 H   0  0  0  0  0  0  0  0  0  0  0  0
    1.5415   -0.7223   -1.5595 H   0  0  0  0  0  0  0  0  0  0  0  0
    4.1385   -1.7377   -1.0651 H   0  0  0  0  0  0  0  0  0  0  0  0
    4.8094   -1.4207    0.4609 H   0  0  0  0  0  0  0  0  0  0  0  0
    3.4156    0.1033    2.1009 H   0  0  0  0  0  0  0  0  0  0  0  0
  1  2  1  0
  2  3  1  0
  3  4  2  0
  4  5  1  0
  4  6  1  0
  6  7  2  0
  7  8  1  0
  7  9  1  0
  9 10  2  0
 10 11  1  0
 11 12  1  0
 12 13  2  0
 13 14  1  0
 13 15  1  0
 15 16  1  0
 10  3  1  0
 16 11  2  0
  1 17  1  0
  1 18  1  0
  1 19  1  0
  6 20  1  0
  9 21  1  0
 12 22  1  0
 14 23  1  0
 14 24  1  0
 15 25  1  0
M  END
>  <enum_code>  
T

>  <uuid>  
6d9aac0b-8ee4-4250-b6e9-41c98e48386b

>  <sha256>  
0220565b592d6bbf24b09234e18ce1e3bcd7b2483639a8f09b309f48b2132b18

>  <std_smi>  
COc1c(Cl)cc(Cl)cc1-c1cc(N)n[nH]1

>  <enum_smi>  
COc1c(Cl)cc(Cl)cc1-c1cc(N)[nH]n1

$$$$
879f3a92-071c-4b35-89fc-775dedc50617
     RDKit          3D

 25 26  0  0  0  0  0  0  0  0999 V2000
   -1.4205    2.5291    0.7272 C   0  0  0  0  0  0  0  0  0  0  0  0
   -1.0401    1.3190    1.3894 O   0  0  0  0  0  0  0  0  0  0  0  0
   -1.4204    0.2202    0.6638 C   0  0  0  0  0  0  0  0  0  0  0  0
   -2.6879   -0.3502    0.8433 C   0  0  0  0  0  0  0  0  0  0  0  0
   -3.8502    0.3379    1.9195 Cl  0  0  0  0  0  0  0  0  0  0  0  0
   -3.0370   -1.5211    0.1666 C   0  0  0  0  0  0  0  0  0  0  0  0
   -2.1108   -2.1344   -0.6736 C   0  0  0  0  0  0  0  0  0  0  0  0
   -2.5395   -3.5793   -1.5032 Cl  0  0  0  0  0  0  0  0  0  0  0  0
   -0.8371   -1.5965   -0.8437 C   0  0  0  0  0  0  0  0  0  0  0  0
   -0.4925   -0.4201   -0.1701 C   0  0  0  0  0  0  0  0  0  0  0  0
    0.8545    0.1264   -0.3658 C   0  0  0  0  0  0  0  0  0  0  0  0
    2.0780   -0.6945   -0.1331 C   0  0  0  0  0  0  0  0  0  0  0  0
    3.0834    0.3580   -0.4763 C   0  0  0  0  0  0  0  0  0  0  0  0
    4.4253    0.1282   -0.4116 N   0  0  0  0  0  0  0  0  0  0  0  0
    2.5330    1.4799   -0.8258 N   0  0  0  0  0  0  0  0  0  0  0  0
    1.1165    1.3363   -0.7537 N   0  0  0  0  0  0  0  0  0  0  0  0
   -0.7077    3.3075    1.0153 H   0  0  0  0  0  0  0  0  0  0  0  0
   -1.4127    2.4431   -0.3656 H   0  0  0  0  0  0  0  0  0  0  0  0
   -2.4146    2.8385    1.0633 H   0  0  0  0  0  0  0  0  0  0  0  0
   -4.0232   -1.9580    0.3033 H   0  0  0  0  0  0  0  0  0  0  0  0
   -0.1301   -2.0823   -1.5113 H   0  0  0  0  0  0  0  0  0  0  0  0
    2.1522   -1.5386   -0.8202 H   0  0  0  0  0  0  0  0  0  0  0  0
    2.1666   -1.0015    0.9104 H   0  0  0  0  0  0  0  0  0  0  0  0
    4.9694    0.9861   -0.4326 H   0  0  0  0  0  0  0  0  0  0  0  0
    4.7452   -0.5338    0.2846 H   0  0  0  0  0  0  0  0  0  0  0  0
  1  2  1  0
  2  3  1  0
  3  4  2  0
  4  5  1  0
  4  6  1  0
  6  7  2  0
  7  8  1  0
  7  9  1  0
  9 10  2  0
 10 11  1  0
 11 12  1  0
 12 13  1  0
 13 14  1  0
 13 15  2  0
 15 16  1  0
 10  3  1  0
 16 11  2  0
  1 17  1  0
  1 18  1  0
  1 19  1  0
  6 20  1  0
  9 21  1  0
 12 22  1  0
 12 23  1  0
 14 24  1  0
 14 25  1  0
M  END
>  <enum_code>  
T

>  <uuid>  
879f3a92-071c-4b35-89fc-775dedc50617

>  <sha256>  
0220565b592d6bbf24b09234e18ce1e3bcd7b2483639a8f09b309f48b2132b18

>  <std_smi>  
COc1c(Cl)cc(Cl)cc1-c1cc(N)n[nH]1

>  <enum_smi>  
COc1c(Cl)cc(Cl)cc1C1=NN=C(N)C1

$$$$
e122dae0-2099-4fc2-bbd3-8b45e0221088
     RDKit          3D

 25 26  0  0  0  0  0  0  0  0999 V2000
   -0.9603    2.4549   -0.6030 C   0  0  0  0  0  0  0  0  0  0  0  0
   -0.8019    1.6702    0.5849 O   0  0  0  0  0  0  0  0  0  0  0  0
   -1.3081    0.4094    0.4025 C   0  0  0  0  0  0  0  0  0  0  0  0
   -2.6753    0.1681    0.6282 C   0  0  0  0  0  0  0  0  0  0  0  0
   -3.7389    1.4155    1.1782 Cl  0  0  0  0  0  0  0  0  0  0  0  0
   -3.2160   -1.1024    0.4303 C   0  0  0  0  0  0  0  0  0  0  0  0
   -2.3877   -2.1417    0.0242 C   0  0  0  0  0  0  0  0  0  0  0  0
   -3.0492   -3.7098   -0.2258 Cl  0  0  0  0  0  0  0  0  0  0  0  0
   -1.0237   -1.9286   -0.1630 C   0  0  0  0  0  0  0  0  0  0  0  0
   -0.4672   -0.6553    0.0449 C   0  0  0  0  0  0  0  0  0  0  0  0
    1.0042   -0.5369   -0.1061 C   0  0  0  0  0  0  0  0  0  0  0  0
    1.8187    0.6131    0.4724 C   0  0  0  0  0  0  0  0  0  0  0  0
    3.1971    0.1392    0.1072 C   0  0  0  0  0  0  0  0  0  0  0  0
    4.2700    0.7632    0.4315 N   0  0  0  0  0  0  0  0  0  0  0  0
    3.0270   -1.0176   -0.5954 N   0  0  0  0  0  0  0  0  0  0  0  0
    1.7322   -1.4435   -0.7092 N   0  0  0  0  0  0  0  0  0  0  0  0
   -0.4761    1.9763   -1.4615 H   0  0  0  0  0  0  0  0  0  0  0  0
   -0.4719    3.4187   -0.4319 H   0  0  0  0  0  0  0  0  0  0  0  0
   -2.0148    2.6445   -0.8251 H   0  0  0  0  0  0  0  0  0  0  0  0
   -4.2751   -1.2809    0.5979 H   0  0  0  0  0  0  0  0  0  0  0  0
   -0.3893   -2.7644   -0.4544 H   0  0  0  0  0  0  0  0  0  0  0  0
    1.7021    0.6865    1.5550 H   0  0  0  0  0  0  0  0  0  0  0  0
    1.6231    1.5573   -0.0361 H   0  0  0  0  0  0  0  0  0  0  0  0
    5.0840    0.2562    0.0744 H   0  0  0  0  0  0  0  0  0  0  0  0
    3.7970   -1.5920   -0.9199 H   0  0  0  0  0  0  0  0  0  0  0  0
  1  2  1  0
  2  3  1  0
  3  4  2  0
  4  5  1  0
  4  6  1  0
  6  7  2  0
  7  8  1  0
  7  9  1  0
  9 10  2  0
 10 11  1  0
 11 12  1  0
 12 13  1  0
 13 14  2  3
 13 15  1  0
 15 16  1  0
 10  3  1  0
 16 11  2  0
  1 17  1  0
  1 18  1  0
  1 19  1  0
  6 20  1  0
  9 21  1  0
 12 22  1  0
 12 23  1  0
 14 24  1  0
 15 25  1  0
M  END
>  <enum_code>  
T

>  <uuid>  
e122dae0-2099-4fc2-bbd3-8b45e0221088

>  <sha256>  
0220565b592d6bbf24b09234e18ce1e3bcd7b2483639a8f09b309f48b2132b18

>  <std_smi>  
COc1c(Cl)cc(Cl)cc1-c1cc(N)n[nH]1

>  <enum_smi>  
COc1c(Cl)cc(Cl)cc1C1=NNC(=N)C1

$$$$
128a2105-21b4-4a19-8e42-b1f51680c6f3
     RDKit          3D

 26 27  0  0  0  0  0  0  0  0999 V2000
   -1.3560   -2.3831    0.6679 C   0  0  0  0  0  0  0  0  0  0  0  0
   -0.9398   -1.1890    1.3440 O   0  0  0  0  0  0  0  0  0  0  0  0
   -1.4636   -0.0751    0.7401 C   0  0  0  0  0  0  0  0  0  0  0  0
   -2.7858    0.3255    1.0070 C   0  0  0  0  0  0  0  0  0  0  0  0
   -3.7746   -0.5039    2.1554 Cl  0  0  0  0  0  0  0  0  0  0  0  0
   -3.3316    1.4393    0.3692 C   0  0  0  0  0  0  0  0  0  0  0  0
   -2.5496    2.1688   -0.5179 C   0  0  0  0  0  0  0  0  0  0  0  0
   -3.2120    3.5415   -1.3138 Cl  0  0  0  0  0  0  0  0  0  0  0  0
   -1.2202    1.8161   -0.7536 C   0  0  0  0  0  0  0  0  0  0  0  0
   -0.6618    0.7065   -0.1061 C   0  0  0  0  0  0  0  0  0  0  0  0
    0.8743    0.4193   -0.3487 C   0  0  0  0  0  0  0  0  0  0  0  0
    1.7278   -0.5793    0.3079 C   0  0  0  0  0  0  0  0  0  0  0  0
    3.0673   -0.4574   -0.2167 C   0  0  0  0  0  0  0  0  0  0  0  0
    4.1843   -1.2788    0.1987 N   0  0  0  0  0  0  0  0  0  0  0  0
    3.0993    0.5664   -1.1663 N   0  3  0  0  0  4  0  0  0  0  0  0
    1.7006    1.1383   -1.2598 N   0  0  0  0  0  0  0  0  0  0  0  0
   -0.8119   -3.2213    1.1134 H   0  0  0  0  0  0  0  0  0  0  0  0
   -2.4256   -2.5728    0.7912 H   0  0  0  0  0  0  0  0  0  0  0  0
   -1.1004   -2.3421   -0.3969 H   0  0  0  0  0  0  0  0  0  0  0  0
   -4.3573    1.7405    0.5709 H   0  0  0  0  0  0  0  0  0  0  0  0
   -0.6343    2.4346   -1.4258 H   0  0  0  0  0  0  0  0  0  0  0  0
    1.4313   -1.2818    1.0716 H   0  0  0  0  0  0  0  0  0  0  0  0
    5.1286   -1.1936   -0.1647 H   0  0  0  0  0  0  0  0  0  0  0  0
    4.0606   -1.9986    0.9095 H   0  0  0  0  0  0  0  0  0  0  0  0
    3.9104    0.8760   -1.6957 H   0  0  0  0  0  0  0  0  0  0  0  0
    1.4398    1.9040   -1.8809 H   0  0  0  0  0  0  0  0  0  0  0  0
  1  2  1  0
  2  3  1  0
  3  4  2  0
  4  5  1  0
  4  6  1  0
  6  7  2  0
  7  8  1  0
  7  9  1  0
  9 10  2  0
 10 11  1  0
 11 12  2  0
 12 13  1  0
 13 14  1  0
 13 15  2  0
 15 16  1  0
 10  3  1  0
 16 11  1  0
  1 17  1  0
  1 18  1  0
  1 19  1  0
  6 20  1  0
  9 21  1  0
 12 22  1  0
 14 23  1  0
 14 24  1  0
 15 25  1  0
 16 26  1  0
M  CHG  1  15   1
M  END
>  <enum_code>  
M

>  <uuid>  
128a2105-21b4-4a19-8e42-b1f51680c6f3

>  <sha256>  
0220565b592d6bbf24b09234e18ce1e3bcd7b2483639a8f09b309f48b2132b18

>  <std_smi>  
COc1c(Cl)cc(Cl)cc1-c1cc(N)n[nH]1

>  <enum_smi>  
COc1c(Cl)cc(Cl)cc1-c1cc(N)[nH+][nH]1

$$$$
a33e08a6-2638-4659-893e-40a1f3f13984
     RDKit          3D

 25 26  0  0  0  0  0  0  0  0999 V2000
   -1.3835   -2.2426   -0.7165 C   0  0  0  0  0  0  0  0  0  0  0  0
   -1.3206   -1.7437    0.6190 O   0  0  0  0  0  0  0  0  0  0  0  0
   -1.5420   -0.3881    0.6471 C   0  0  0  0  0  0  0  0  0  0  0  0
   -2.8366    0.0869    0.9107 C   0  0  0  0  0  0  0  0  0  0  0  0
   -4.1601   -0.9942    1.1719 Cl  0  0  0  0  0  0  0  0  0  0  0  0
   -3.0923    1.4575    0.9602 C   0  0  0  0  0  0  0  0  0  0  0  0
   -2.0490    2.3561    0.7624 C   0  0  0  0  0  0  0  0  0  0  0  0
   -2.3594    4.0478    0.8192 Cl  0  0  0  0  0  0  0  0  0  0  0  0
   -0.7529    1.9012    0.5251 C   0  0  0  0  0  0  0  0  0  0  0  0
   -0.4844    0.5242    0.4782 C   0  0  0  0  0  0  0  0  0  0  0  0
    0.8933    0.0954    0.2609 C   0  0  0  0  0  0  0  0  0  0  0  0
    1.7330    0.4524   -0.8761 C   0  0  0  0  0  0  0  0  0  0  0  0
    3.0491   -0.2263   -0.6041 C   0  0  0  0  0  0  0  0  0  0  0  0
    4.1352   -0.2121   -1.3429 N   0  0  0  0  0  0  0  0  0  0  0  0
    2.7971   -0.8832    0.6656 N   0  3  0  0  0  4  0  0  0  0  0  0
    1.5452   -0.6853    1.1735 N   0  5  0  0  0  2  0  0  0  0  0  0
   -2.3398   -2.0005   -1.1929 H   0  0  0  0  0  0  0  0  0  0  0  0
   -0.5554   -1.8629   -1.3231 H   0  0  0  0  0  0  0  0  0  0  0  0
   -1.2955   -3.3322   -0.6706 H   0  0  0  0  0  0  0  0  0  0  0  0
   -4.0975    1.8204    1.1574 H   0  0  0  0  0  0  0  0  0  0  0  0
    0.0545    2.6200    0.4012 H   0  0  0  0  0  0  0  0  0  0  0  0
    1.4971    1.0570   -1.7348 H   0  0  0  0  0  0  0  0  0  0  0  0
    4.9612   -0.7135   -1.0420 H   0  0  0  0  0  0  0  0  0  0  0  0
    4.1271    0.3101   -2.2108 H   0  0  0  0  0  0  0  0  0  0  0  0
    3.4762   -1.4445    1.1613 H   0  0  0  0  0  0  0  0  0  0  0  0
  1  2  1  0
  2  3  1  0
  3  4  2  0
  4  5  1  0
  4  6  1  0
  6  7  2  0
  7  8  1  0
  7  9  1  0
  9 10  2  0
 10 11  1  0
 11 12  2  0
 12 13  1  0
 13 14  1  0
 13 15  2  0
 15 16  1  0
 10  3  1  0
 16 11  1  0
  1 17  1  0
  1 18  1  0
  1 19  1  0
  6 20  1  0
  9 21  1  0
 12 22  1  0
 14 23  1  0
 14 24  1  0
 15 25  1  0
M  CHG  2  15   1  16  -1
M  END
>  <enum_code>  
M

>  <uuid>  
a33e08a6-2638-4659-893e-40a1f3f13984

>  <sha256>  
0220565b592d6bbf24b09234e18ce1e3bcd7b2483639a8f09b309f48b2132b18

>  <std_smi>  
COc1c(Cl)cc(Cl)cc1-c1cc(N)n[nH]1

>  <enum_smi>  
COc1c(Cl)cc(Cl)cc1-c1cc(N)[nH+][n-]1

$$$$
745bd83b-e33e-4629-9ea3-d49090f8b5d0
     RDKit          3D

 27 28  0  0  0  0  0  0  0  0999 V2000
   -2.5344   -2.1131   -0.1693 C   0  0  0  0  0  0  0  0  0  0  0  0
   -1.8508   -1.2045    0.7069 O   0  0  0  0  0  0  0  0  0  0  0  0
   -1.8443    0.0939    0.2505 C   0  0  0  0  0  0  0  0  0  0  0  0
   -3.0133    0.8334   -0.0069 C   0  0  0  0  0  0  0  0  0  0  0  0
   -4.5927    0.2221    0.3249 Cl  0  0  0  0  0  0  0  0  0  0  0  0
   -2.9290    2.1397   -0.4948 C   0  0  0  0  0  0  0  0  0  0  0  0
   -1.6823    2.7204   -0.6995 C   0  0  0  0  0  0  0  0  0  0  0  0
   -1.5715    4.3269   -1.2998 Cl  0  0  0  0  0  0  0  0  0  0  0  0
   -0.5116    2.0251   -0.3964 C   0  0  0  0  0  0  0  0  0  0  0  0
   -0.5920    0.7208    0.0995 C   0  0  0  0  0  0  0  0  0  0  0  0
    0.7283   -0.0306    0.5198 C   0  0  0  0  0  0  0  0  0  0  0  0
    2.1158    0.4413    0.4200 C   0  0  0  0  0  0  0  0  0  0  0  0
    2.9885   -0.5889    0.9697 C   0  0  0  0  0  0  0  0  0  0  0  0
    4.4475   -0.4579    1.0434 N   0  3  0  0  0  4  0  0  0  0  0  0
    2.1940   -1.6764    1.4042 N   0  3  0  0  0  4  0  0  0  0  0  0
    0.7754   -1.3132    1.1122 N   0  0  0  0  0  0  0  0  0  0  0  0
   -2.6611   -1.7236   -1.1859 H   0  0  0  0  0  0  0  0  0  0  0  0
   -1.9287   -3.0225   -0.2343 H   0  0  0  0  0  0  0  0  0  0  0  0
   -3.4988   -2.3893    0.2653 H   0  0  0  0  0  0  0  0  0  0  0  0
   -3.8349    2.7079   -0.7011 H   0  0  0  0  0  0  0  0  0  0  0  0
    0.4368    2.5320   -0.5424 H   0  0  0  0  0  0  0  0  0  0  0  0
    2.4183    1.3965    0.0107 H   0  0  0  0  0  0  0  0  0  0  0  0
    4.7723    0.4303    0.6271 H   0  0  0  0  0  0  0  0  0  0  0  0
    4.8101   -0.4448    2.0089 H   0  0  0  0  0  0  0  0  0  0  0  0
    4.9552   -1.1923    0.5276 H   0  0  0  0  0  0  0  0  0  0  0  0
    2.4658   -2.5590    1.8467 H   0  0  0  0  0  0  0  0  0  0  0  0
   -0.0624   -1.8739    1.3257 H   0  0  0  0  0  0  0  0  0  0  0  0
  1  2  1  0
  2  3  1  0
  3  4  2  0
  4  5  1  0
  4  6  1  0
  6  7  2  0
  7  8  1  0
  7  9  1  0
  9 10  2  0
 10 11  1  0
 11 12  2  0
 12 13  1  0
 13 14  1  0
 13 15  2  0
 15 16  1  0
 10  3  1  0
 16 11  1  0
  1 17  1  0
  1 18  1  0
  1 19  1  0
  6 20  1  0
  9 21  1  0
 12 22  1  0
 14 23  1  0
 14 24  1  0
 14 25  1  0
 15 26  1  0
 16 27  1  0
M  CHG  2  14   1  15   1
M  END
>  <enum_code>  
M

>  <uuid>  
745bd83b-e33e-4629-9ea3-d49090f8b5d0

>  <sha256>  
0220565b592d6bbf24b09234e18ce1e3bcd7b2483639a8f09b309f48b2132b18

>  <std_smi>  
COc1c(Cl)cc(Cl)cc1-c1cc(N)n[nH]1

>  <enum_smi>  
COc1c(Cl)cc(Cl)cc1-c1cc([NH3+])[nH+][nH]1

$$$$
b12355f7-b617-4007-8a3f-2934ff5c7096
     RDKit          3D

 26 27  0  0  0  0  0  0  0  0999 V2000
   -2.2228    1.9229   -0.3806 C   0  0  0  0  0  0  0  0  0  0  0  0
   -1.8471    0.7162   -1.0583 O   0  0  0  0  0  0  0  0  0  0  0  0
   -1.7062   -0.3186   -0.1587 C   0  0  0  0  0  0  0  0  0  0  0  0
   -2.8299   -1.0454    0.2740 C   0  0  0  0  0  0  0  0  0  0  0  0
   -4.4140   -0.7146   -0.3283 Cl  0  0  0  0  0  0  0  0  0  0  0  0
   -2.6842   -2.0860    1.1887 C   0  0  0  0  0  0  0  0  0  0  0  0
   -1.4149   -2.4150    1.6494 C   0  0  0  0  0  0  0  0  0  0  0  0
   -1.2224   -3.6983    2.7787 Cl  0  0  0  0  0  0  0  0  0  0  0  0
   -0.2861   -1.7313    1.1902 C   0  0  0  0  0  0  0  0  0  0  0  0
   -0.4085   -0.6835    0.2643 C   0  0  0  0  0  0  0  0  0  0  0  0
    0.8052   -0.0286   -0.2501 C   0  0  0  0  0  0  0  0  0  0  0  0
    2.1005    0.0489    0.2395 C   0  0  0  0  0  0  0  0  0  0  0  0
    2.7939    0.7826   -0.7236 C   0  0  0  0  0  0  0  0  0  0  0  0
    4.1728    1.1542   -0.7182 N   0  3  0  0  0  4  0  0  0  0  0  0
    2.0569    1.1606   -1.7488 N   0  0  0  0  0  0  0  0  0  0  0  0
    0.8420    0.6486   -1.4531 N   0  0  0  0  0  0  0  0  0  0  0  0
   -2.2603    2.7225   -1.1264 H   0  0  0  0  0  0  0  0  0  0  0  0
   -1.4761    2.1976    0.3727 H   0  0  0  0  0  0  0  0  0  0  0  0
   -3.2112    1.8444    0.0806 H   0  0  0  0  0  0  0  0  0  0  0  0
   -3.5530   -2.6434    1.5309 H   0  0  0  0  0  0  0  0  0  0  0  0
    0.6899   -2.0477    1.5500 H   0  0  0  0  0  0  0  0  0  0  0  0
    2.4655   -0.3723    1.1660 H   0  0  0  0  0  0  0  0  0  0  0  0
    4.4114    1.7583    0.0714 H   0  0  0  0  0  0  0  0  0  0  0  0
    4.7944    0.3425   -0.7372 H   0  0  0  0  0  0  0  0  0  0  0  0
    4.3415    1.6898   -1.5783 H   0  0  0  0  0  0  0  0  0  0  0  0
    0.0625    0.7954   -2.0948 H   0  0  0  0  0  0  0  0  0  0  0  0
  1  2  1  0
  2  3  1  0
  3  4  2  0
  4  5  1  0
  4  6  1  0
  6  7  2  0
  7  8  1  0
  7  9  1  0
  9 10  2  0
 10 11  1  0
 11 12  2  0
 12 13  1  0
 13 14  1  0
 13 15  2  0
 15 16  1  0
 10  3  1  0
 16 11  1  0
  1 17  1  0
  1 18  1  0
  1 19  1  0
  6 20  1  0
  9 21  1  0
 12 22  1  0
 14 23  1  0
 14 24  1  0
 14 25  1  0
 16 26  1  0
M  CHG  1  14   1
M  END
>  <enum_code>  
M

>  <uuid>  
b12355f7-b617-4007-8a3f-2934ff5c7096

>  <sha256>  
0220565b592d6bbf24b09234e18ce1e3bcd7b2483639a8f09b309f48b2132b18

>  <std_smi>  
COc1c(Cl)cc(Cl)cc1-c1cc(N)n[nH]1

>  <enum_smi>  
COc1c(Cl)cc(Cl)cc1-c1cc([NH3+])n[nH]1

$$$$
c9011ee3-0d25-4598-b2a8-411da7dddd13
     RDKit          3D

 25 26  0  0  0  0  0  0  0  0999 V2000
   -1.4604   -2.1416    0.5226 C   0  0  0  0  0  0  0  0  0  0  0  0
   -1.3142   -1.3090   -0.6339 O   0  0  0  0  0  0  0  0  0  0  0  0
   -1.5412    0.0022   -0.2931 C   0  0  0  0  0  0  0  0  0  0  0  0
   -2.8520    0.5093   -0.3287 C   0  0  0  0  0  0  0  0  0  0  0  0
   -4.1815   -0.4584   -0.8669 Cl  0  0  0  0  0  0  0  0  0  0  0  0
   -3.1201    1.8201    0.0671 C   0  0  0  0  0  0  0  0  0  0  0  0
   -2.0748    2.6349    0.4892 C   0  0  0  0  0  0  0  0  0  0  0  0
   -2.4063    4.2482    0.9882 Cl  0  0  0  0  0  0  0  0  0  0  0  0
   -0.7663    2.1605    0.4918 C   0  0  0  0  0  0  0  0  0  0  0  0
   -0.4864    0.8497    0.0734 C   0  0  0  0  0  0  0  0  0  0  0  0
    1.0450    0.4238    0.0201 C   0  0  0  0  0  0  0  0  0  0  0  0
    1.5723   -0.7292   -0.5308 C   0  0  0  0  0  0  0  0  0  0  0  0
    2.8892   -0.5256   -0.3100 C   0  0  0  0  0  0  0  0  0  0  0  0
    4.0138   -1.3107   -0.6566 N   0  3  0  0  0  4  0  0  0  0  0  0
    3.2051    0.5852    0.3147 N   0  0  0  0  0  0  0  0  0  0  0  0
    2.0364    1.2147    0.5046 N   0  5  0  0  0  2  0  0  0  0  0  0
   -0.7605   -1.8524    1.3143 H   0  0  0  0  0  0  0  0  0  0  0  0
   -2.4863   -2.1275    0.9042 H   0  0  0  0  0  0  0  0  0  0  0  0
   -1.2260   -3.1676    0.2235 H   0  0  0  0  0  0  0  0  0  0  0  0
   -4.1363    2.2037    0.0468 H   0  0  0  0  0  0  0  0  0  0  0  0
    0.0498    2.8149    0.7969 H   0  0  0  0  0  0  0  0  0  0  0  0
    1.0756   -1.5433   -1.0222 H   0  0  0  0  0  0  0  0  0  0  0  0
    4.7719   -0.7161   -0.2960 H   0  0  0  0  0  0  0  0  0  0  0  0
    4.1220   -1.3926   -1.6624 H   0  0  0  0  0  0  0  0  0  0  0  0
    4.0313   -2.1931   -0.1565 H   0  0  0  0  0  0  0  0  0  0  0  0
  1  2  1  0
  2  3  1  0
  3  4  2  0
  4  5  1  0
  4  6  1  0
  6  7  2  0
  7  8  1  0
  7  9  1  0
  9 10  2  0
 10 11  1  0
 11 12  2  0
 12 13  1  0
 13 14  1  0
 13 15  2  0
 15 16  1  0
 10  3  1  0
 16 11  1  0
  1 17  1  0
  1 18  1  0
  1 19  1  0
  6 20  1  0
  9 21  1  0
 12 22  1  0
 14 23  1  0
 14 24  1  0
 14 25  1  0
M  CHG  2  14   1  16  -1
M  END
>  <enum_code>  
M

>  <uuid>  
c9011ee3-0d25-4598-b2a8-411da7dddd13

>  <sha256>  
0220565b592d6bbf24b09234e18ce1e3bcd7b2483639a8f09b309f48b2132b18

>  <std_smi>  
COc1c(Cl)cc(Cl)cc1-c1cc(N)n[nH]1

>  <enum_smi>  
COc1c(Cl)cc(Cl)cc1-c1cc([NH3+])n[n-]1

$$$$
21f4e05f-12d8-48dd-ae5c-685f7acdb0e2
     RDKit          3D

 24 25  0  0  0  0  0  0  0  0999 V2000
   -1.5106   -2.3822    0.3539 C   0  0  0  0  0  0  0  0  0  0  0  0
   -1.7165   -1.5036   -0.7532 O   0  0  0  0  0  0  0  0  0  0  0  0
   -1.6391   -0.1892   -0.3753 C   0  0  0  0  0  0  0  0  0  0  0  0
   -2.8524    0.5158   -0.2732 C   0  0  0  0  0  0  0  0  0  0  0  0
   -4.3804   -0.2607   -0.5288 Cl  0  0  0  0  0  0  0  0  0  0  0  0
   -2.8701    1.8729    0.0466 C   0  0  0  0  0  0  0  0  0  0  0  0
   -1.6690    2.5374    0.2505 C   0  0  0  0  0  0  0  0  0  0  0  0
   -1.6823    4.2141    0.6459 Cl  0  0  0  0  0  0  0  0  0  0  0  0
   -0.4550    1.8631    0.1362 C   0  0  0  0  0  0  0  0  0  0  0  0
   -0.4219    0.4940   -0.1829 C   0  0  0  0  0  0  0  0  0  0  0  0
    1.0187   -0.2052   -0.3009 C   0  0  0  0  0  0  0  0  0  0  0  0
    2.2285    0.4449   -0.1417 C   0  0  0  0  0  0  0  0  0  0  0  0
    3.1484   -0.5593   -0.3025 C   0  0  0  0  0  0  0  0  0  0  0  0
    4.5269   -0.5323   -0.2125 N   0  0  0  0  0  0  0  0  0  0  0  0
    2.5524   -1.7314   -0.5289 N   0  0  0  0  0  0  0  0  0  0  0  0
    1.2228   -1.5135   -0.5441 N   0  5  0  0  0  2  0  0  0  0  0  0
   -1.0172   -3.2878   -0.0110 H   0  0  0  0  0  0  0  0  0  0  0  0
   -2.4864   -2.6718    0.7576 H   0  0  0  0  0  0  0  0  0  0  0  0
   -0.9129   -1.9517    1.1654 H   0  0  0  0  0  0  0  0  0  0  0  0
   -3.8130    2.4041    0.1291 H   0  0  0  0  0  0  0  0  0  0  0  0
    0.4637    2.4161    0.2971 H   0  0  0  0  0  0  0  0  0  0  0  0
    2.4359    1.4781    0.0598 H   0  0  0  0  0  0  0  0  0  0  0  0
    4.8891   -1.4810   -0.2019 H   0  0  0  0  0  0  0  0  0  0  0  0
    4.9406    0.0293    0.5149 H   0  0  0  0  0  0  0  0  0  0  0  0
  1  2  1  0
  2  3  1  0
  3  4  2  0
  4  5  1  0
  4  6  1  0
  6  7  2  0
  7  8  1  0
  7  9  1  0
  9 10  2  0
 10 11  1  0
 11 12  2  0
 12 13  1  0
 13 14  1  0
 13 15  2  0
 15 16  1  0
 10  3  1  0
 16 11  1  0
  1 17  1  0
  1 18  1  0
  1 19  1  0
  6 20  1  0
  9 21  1  0
 12 22  1  0
 14 23  1  0
 14 24  1  0
M  CHG  1  16  -1
M  END
>  <enum_code>  
M

>  <uuid>  
21f4e05f-12d8-48dd-ae5c-685f7acdb0e2

>  <sha256>  
0220565b592d6bbf24b09234e18ce1e3bcd7b2483639a8f09b309f48b2132b18

>  <std_smi>  
COc1c(Cl)cc(Cl)cc1-c1cc(N)n[nH]1

>  <enum_smi>  
COc1c(Cl)cc(Cl)cc1-c1cc(N)n[n-]1

$$$$
58120764-f33b-41e8-8bd7-f773af7f828a
     RDKit          3D

 22 24  0  0  0  0  0  0  0  0999 V2000
    4.6460   -1.5106    0.8314 O   0  0  0  0  0  0  0  0  0  0  0  0
    4.2547   -0.4684    0.3254 C   0  0  0  0  0  0  0  0  0  0  0  0
    2.8353   -0.1084    0.1198 C   0  0  0  0  0  0  0  0  0  0  0  0
    2.5806    1.0772   -0.4511 C   0  0  0  0  0  0  0  0  0  0  0  0
    1.3403    1.5999   -0.7300 O   0  0  0  0  0  0  0  0  0  0  0  0
    0.2414    0.8470   -0.3977 C   0  0  0  0  0  0  0  0  0  0  0  0
   -1.0098    1.3955   -0.6891 C   0  0  0  0  0  0  0  0  0  0  0  0
   -2.1220    0.6496   -0.3605 C   0  0  0  0  0  0  0  0  0  0  0  0
   -2.0199   -0.5888    0.2319 C   0  0  0  0  0  0  0  0  0  0  0  0
   -0.7993   -1.1545    0.5308 C   0  0  0  0  0  0  0  0  0  0  0  0
    0.3473   -0.4173    0.2071 C   0  0  0  0  0  0  0  0  0  0  0  0
    1.6883   -0.9612    0.4985 C   0  0  0  0  0  0  0  0  0  0  0  0
    1.8035   -2.0591    1.0243 O   0  0  0  0  0  0  0  0  0  0  0  0
   -3.2351   -1.1496    0.4699 O   0  0  0  0  0  0  0  0  0  0  0  0
   -4.1157   -0.1262   -0.0389 C   0  0  0  0  0  0  0  0  0  0  0  0
   -3.4139    1.0194   -0.5677 O   0  0  0  0  0  0  0  0  0  0  0  0
    4.9851    0.2851   -0.0160 H   0  0  0  0  0  0  0  0  0  0  0  0
    3.3397    1.7827   -0.7690 H   0  0  0  0  0  0  0  0  0  0  0  0
   -1.1080    2.3691   -1.1553 H   0  0  0  0  0  0  0  0  0  0  0  0
   -0.7344   -2.1320    0.9980 H   0  0  0  0  0  0  0  0  0  0  0  0
   -4.7714    0.2084    0.7732 H   0  0  0  0  0  0  0  0  0  0  0  0
   -4.7327   -0.5578   -0.8353 H   0  0  0  0  0  0  0  0  0  0  0  0
  1  2  2  0
  2  3  1  0
  3  4  2  0
  4  5  1  0
  5  6  1  0
  6  7  2  0
  7  8  1  0
  8  9  2  0
  9 10  1  0
 10 11  2  0
 11 12  1  0
 12 13  2  0
  9 14  1  0
 14 15  1  0
 15 16  1  0
 12  3  1  0
 11  6  1  0
 16  8  1  0
  2 17  1  0
  4 18  1  0
  7 19  1  0
 10 20  1  0
 15 21  1  0
 15 22  1  0
M  END
>  <enum_code>  
B

>  <uuid>  
58120764-f33b-41e8-8bd7-f773af7f828a

>  <sha256>  
003eea610e161960d540fa42700c685eece3db6e810f597e66cc5ea20df7b961

>  <std_smi>  
O=Cc1coc2cc3c(cc2c1=O)OCO3

>  <enum_smi>  
O=Cc1coc2cc3c(cc2c1=O)OCO3

$$$$
15c4922b-136d-4da3-908e-bac594800d6c
     RDKit          3D

 20 21  0  0  0  0  0  0  0  0999 V2000
    0.4702   -1.3688   -1.7775 O   0  0  0  0  0  0  0  0  0  0  0  0
   -0.2003   -0.4150   -1.3773 C   0  0  0  0  0  0  0  0  0  0  0  0
    0.1334    0.9717   -1.9014 C   0  0  0  0  0  0  0  0  0  0  0  0
    0.7133    2.0982   -0.6042 S   0  0  0  0  0  0  0  0  0  0  0  0
    1.9001    1.0853    0.1804 C   0  0  0  0  0  0  0  0  0  0  0  0
    1.6082    0.4306    1.2819 N   0  0  0  0  0  0  0  0  0  0  0  0
    2.6693   -0.3365    1.7234 N   0  0  0  0  0  0  0  0  0  0  0  0
    3.7141   -0.2223    0.9319 C   0  0  0  0  0  0  0  0  0  0  0  0
    3.4911    0.8360   -0.4000 S   0  0  0  0  0  0  0  0  0  0  0  0
   -1.3322   -0.5897   -0.4527 C   0  0  0  0  0  0  0  0  0  0  0  0
   -2.4340    0.3328   -0.2928 C   0  0  0  0  0  0  0  0  0  0  0  0
   -3.3434   -0.0984    0.6394 C   0  0  0  0  0  0  0  0  0  0  0  0
   -4.9237    0.8722    1.0972 Br  0  0  0  0  0  0  0  0  0  0  0  0
   -2.9263   -1.5753    1.3401 S   0  0  0  0  0  0  0  0  0  0  0  0
   -1.5032   -1.6628    0.4064 C   0  0  0  0  0  0  0  0  0  0  0  0
   -0.3014   -3.1433    0.6452 Br  0  0  0  0  0  0  0  0  0  0  0  0
   -0.7410    1.3967   -2.4032 H   0  0  0  0  0  0  0  0  0  0  0  0
    0.9191    0.8794   -2.6594 H   0  0  0  0  0  0  0  0  0  0  0  0
    4.6395   -0.7520    1.1098 H   0  0  0  0  0  0  0  0  0  0  0  0
   -2.5528    1.2610   -0.8384 H   0  0  0  0  0  0  0  0  0  0  0  0
  1  2  2  0
  2  3  1  0
  3  4  1  0
  4  5  1  0
  5  6  2  0
  6  7  1  0
  7  8  2  0
  8  9  1  0
  2 10  1  0
 10 11  1  0
 11 12  2  0
 12 13  1  0
 12 14  1  0
 14 15  1  0
 15 16  1  0
  9  5  1  0
 15 10  2  0
  3 17  1  0
  3 18  1  0
  8 19  1  0
 11 20  1  0
M  END
>  <enum_code>  
B

>  <uuid>  
15c4922b-136d-4da3-908e-bac594800d6c

>  <sha256>  
4fbc411484235e629e48d8624ec40f34931f7851c15a0ea030d44a023231e732

>  <std_smi>  
O=C(CSc1nncs1)c1cc(Br)sc1Br

>  <enum_smi>  
O=C(CSc1nncs1)c1cc(Br)sc1Br

$$$$
81b8485a-b03e-413a-82d3-c68eac9f36f9
     RDKit          3D

 20 21  0  0  0  0  0  0  0  0999 V2000
   -0.6059   -2.5989    0.5930 O   0  0  0  0  0  0  0  0  0  0  0  0
   -0.5897   -1.2474    0.2989 C   0  0  0  0  0  0  0  0  0  0  0  0
    0.5480   -0.6154   -0.0437 C   0  0  0  0  0  0  0  0  0  0  0  0
    0.6509    1.0870   -0.3777 S   0  0  0  0  0  0  0  0  0  0  0  0
    2.3021    1.1968   -0.9553 C   0  0  0  0  0  0  0  0  0  0  0  0
    3.2078    0.2548   -0.7869 N   0  0  0  0  0  0  0  0  0  0  0  0
    4.4306    0.5953   -1.3321 N   0  0  0  0  0  0  0  0  0  0  0  0
    4.3998    1.7885   -1.8842 C   0  0  0  0  0  0  0  0  0  0  0  0
    2.8856    2.5848   -1.7853 S   0  0  0  0  0  0  0  0  0  0  0  0
   -1.8858   -0.6560    0.4330 C   0  0  0  0  0  0  0  0  0  0  0  0
   -2.4809   -0.3301    1.6955 C   0  0  0  0  0  0  0  0  0  0  0  0
   -3.7263    0.2241    1.5322 C   0  0  0  0  0  0  0  0  0  0  0  0
   -4.8234    0.7998    2.9875 Br  0  0  0  0  0  0  0  0  0  0  0  0
   -4.1991    0.3471   -0.0904 S   0  0  0  0  0  0  0  0  0  0  0  0
   -2.7349   -0.3501   -0.6105 C   0  0  0  0  0  0  0  0  0  0  0  0
   -2.3774   -0.6524   -2.4716 Br  0  0  0  0  0  0  0  0  0  0  0  0
    0.2864   -2.9634    0.4678 H   0  0  0  0  0  0  0  0  0  0  0  0
    1.4611   -1.2001   -0.0994 H   0  0  0  0  0  0  0  0  0  0  0  0
    5.2623    2.2312   -2.3627 H   0  0  0  0  0  0  0  0  0  0  0  0
   -2.0110   -0.4957    2.6574 H   0  0  0  0  0  0  0  0  0  0  0  0
  1  2  1  0
  2  3  2  3
  3  4  1  0
  4  5  1  0
  5  6  2  0
  6  7  1  0
  7  8  2  0
  8  9  1  0
  2 10  1  0
 10 11  1  0
 11 12  2  0
 12 13  1  0
 12 14  1  0
 14 15  1  0
 15 16  1  0
  9  5  1  0
 15 10  2  0
  1 17  1  0
  3 18  1  0
  8 19  1  0
 11 20  1  0
M  END
>  <enum_code>  
T

>  <uuid>  
81b8485a-b03e-413a-82d3-c68eac9f36f9

>  <sha256>  
4fbc411484235e629e48d8624ec40f34931f7851c15a0ea030d44a023231e732

>  <std_smi>  
O=C(CSc1nncs1)c1cc(Br)sc1Br

>  <enum_smi>  
OC(=CSc1nncs1)c1cc(Br)sc1Br

$$$$
b29dca71-f80d-4125-9cad-78e8f5efe4ff
     RDKit          3D

 22 23  0  0  0  0  0  0  0  0999 V2000
   -1.8090    1.0192   -2.1332 O   0  0  0  0  0  0  0  0  0  0  0  0
   -1.4266    0.7154   -0.9985 C   0  0  0  0  0  0  0  0  0  0  0  0
    0.0604    0.5848   -0.7479 C   0  0  0  0  0  0  0  0  0  0  0  0
    0.4771   -1.0976   -0.2105 S   0  0  0  0  0  0  0  0  0  0  0  0
    2.1559   -0.8428    0.1291 C   0  0  0  0  0  0  0  0  0  0  0  0
    3.0466   -0.6708   -0.8072 N   0  3  0  0  0  4  0  0  0  0  0  0
    4.2932   -0.4747   -0.3499 N   0  3  0  0  0  4  0  0  0  0  0  0
    4.3787   -0.4906    0.9548 C   0  0  0  0  0  0  0  0  0  0  0  0
    2.8392   -0.7521    1.7091 S   0  0  0  0  0  0  0  0  0  0  0  0
   -2.4358    0.4648    0.0445 C   0  0  0  0  0  0  0  0  0  0  0  0
   -3.7606   -0.0172   -0.2935 C   0  0  0  0  0  0  0  0  0  0  0  0
   -4.5483   -0.2117    0.8095 C   0  0  0  0  0  0  0  0  0  0  0  0
   -6.3411   -0.8633    0.7280 Br  0  0  0  0  0  0  0  0  0  0  0  0
   -3.7693    0.1881    2.2508 S   0  0  0  0  0  0  0  0  0  0  0  0
   -2.3521    0.6476    1.4135 C   0  0  0  0  0  0  0  0  0  0  0  0
   -0.8982    1.3931    2.4197 Br  0  0  0  0  0  0  0  0  0  0  0  0
    0.5782    0.7735   -1.6958 H   0  0  0  0  0  0  0  0  0  0  0  0
    0.4010    1.3515   -0.0508 H   0  0  0  0  0  0  0  0  0  0  0  0
    2.7743   -0.7686   -1.7855 H   0  0  0  0  0  0  0  0  0  0  0  0
    5.1305   -0.3680   -0.9278 H   0  0  0  0  0  0  0  0  0  0  0  0
    5.2907   -0.3648    1.5233 H   0  0  0  0  0  0  0  0  0  0  0  0
   -4.0850   -0.2159   -1.3097 H   0  0  0  0  0  0  0  0  0  0  0  0
  1  2  2  0
  2  3  1  0
  3  4  1  0
  4  5  1  0
  5  6  2  0
  6  7  1  0
  7  8  2  0
  8  9  1  0
  2 10  1  0
 10 11  1  0
 11 12  2  0
 12 13  1  0
 12 14  1  0
 14 15  1  0
 15 16  1  0
  9  5  1  0
 15 10  2  0
  3 17  1  0
  3 18  1  0
  6 19  1  0
  7 20  1  0
  8 21  1  0
 11 22  1  0
M  CHG  2   6   1   7   1
M  END
>  <enum_code>  
M

>  <uuid>  
b29dca71-f80d-4125-9cad-78e8f5efe4ff

>  <sha256>  
4fbc411484235e629e48d8624ec40f34931f7851c15a0ea030d44a023231e732

>  <std_smi>  
O=C(CSc1nncs1)c1cc(Br)sc1Br

>  <enum_smi>  
O=C(CSc1[nH+][nH+]cs1)c1cc(Br)sc1Br

$$$$
f9b192de-3b35-419f-8a85-804bb50bdb65
     RDKit          3D

 21 22  0  0  0  0  0  0  0  0999 V2000
   -0.0642    0.9587   -0.5503 O   0  0  0  0  0  0  0  0  0  0  0  0
    0.6057    0.0701   -0.0053 C   0  0  0  0  0  0  0  0  0  0  0  0
    0.1942   -0.4040    1.3839 C   0  0  0  0  0  0  0  0  0  0  0  0
   -0.5712    0.9412    2.3541 S   0  0  0  0  0  0  0  0  0  0  0  0
   -2.0792    1.2376    1.5405 C   0  0  0  0  0  0  0  0  0  0  0  0
   -2.2183    1.6624    0.2992 N   0  3  0  0  0  4  0  0  0  0  0  0
   -3.4971    1.8995   -0.1758 N   0  0  0  0  0  0  0  0  0  0  0  0
   -4.3507    1.6484    0.7945 C   0  0  0  0  0  0  0  0  0  0  0  0
   -3.6267    1.1175    2.2673 S   0  0  0  0  0  0  0  0  0  0  0  0
    1.7311   -0.5915   -0.6761 C   0  0  0  0  0  0  0  0  0  0  0  0
    2.2953   -1.8688   -0.3006 C   0  0  0  0  0  0  0  0  0  0  0  0
    3.3330   -2.2414   -1.1185 C   0  0  0  0  0  0  0  0  0  0  0  0
    4.3020   -3.8740   -0.9124 Br  0  0  0  0  0  0  0  0  0  0  0  0
    3.6639   -1.1115   -2.3263 S   0  0  0  0  0  0  0  0  0  0  0  0
    2.4157   -0.0933   -1.7731 C   0  0  0  0  0  0  0  0  0  0  0  0
    2.1027    1.5877   -2.6508 Br  0  0  0  0  0  0  0  0  0  0  0  0
   -0.4977   -1.2461    1.2892 H   0  0  0  0  0  0  0  0  0  0  0  0
    1.0769   -0.7260    1.9430 H   0  0  0  0  0  0  0  0  0  0  0  0
   -1.3470    1.7610   -0.2421 H   0  0  0  0  0  0  0  0  0  0  0  0
   -5.4229    1.7638    0.6837 H   0  0  0  0  0  0  0  0  0  0  0  0
    1.9546   -2.4915    0.5188 H   0  0  0  0  0  0  0  0  0  0  0  0
  1  2  2  0
  2  3  1  0
  3  4  1  0
  4  5  1  0
  5  6  2  0
  6  7  1  0
  7  8  2  0
  8  9  1  0
  2 10  1  0
 10 11  1  0
 11 12  2  0
 12 13  1  0
 12 14  1  0
 14 15  1  0
 15 16  1  0
  9  5  1  0
 15 10  2  0
  3 17  1  0
  3 18  1  0
  6 19  1  0
  8 20  1  0
 11 21  1  0
M  CHG  1   6   1
M  END
>  <enum_code>  
M

>  <uuid>  
f9b192de-3b35-419f-8a85-804bb50bdb65

>  <sha256>  
4fbc411484235e629e48d8624ec40f34931f7851c15a0ea030d44a023231e732

>  <std_smi>  
O=C(CSc1nncs1)c1cc(Br)sc1Br

>  <enum_smi>  
O=C(CSc1[nH+]ncs1)c1cc(Br)sc1Br

$$$$
276e4ef4-028a-465d-8f14-8bfdb19de869
     RDKit          3D

 21 22  0  0  0  0  0  0  0  0999 V2000
    1.1012   -0.7887   -1.9568 O   0  0  0  0  0  0  0  0  0  0  0  0
    1.1687   -0.2226   -0.8653 C   0  0  0  0  0  0  0  0  0  0  0  0
   -0.0841    0.0141   -0.0342 C   0  0  0  0  0  0  0  0  0  0  0  0
   -1.1618   -1.4531   -0.0744 S   0  0  0  0  0  0  0  0  0  0  0  0
   -2.7241   -0.7917    0.3231 C   0  0  0  0  0  0  0  0  0  0  0  0
   -3.8063   -1.2057   -0.3029 N   0  0  0  0  0  0  0  0  0  0  0  0
   -4.9074   -0.5691    0.2331 N   0  3  0  0  0  4  0  0  0  0  0  0
   -4.7094    0.2850    1.2168 C   0  0  0  0  0  0  0  0  0  0  0  0
   -3.0340    0.3605    1.5679 S   0  0  0  0  0  0  0  0  0  0  0  0
    2.4734    0.2094   -0.3543 C   0  0  0  0  0  0  0  0  0  0  0  0
    3.6827   -0.5500   -0.5753 C   0  0  0  0  0  0  0  0  0  0  0  0
    4.7779    0.0350    0.0057 C   0  0  0  0  0  0  0  0  0  0  0  0
    6.5344   -0.7102   -0.0609 Br  0  0  0  0  0  0  0  0  0  0  0  0
    4.4137    1.4883    0.7856 S   0  0  0  0  0  0  0  0  0  0  0  0
    2.7728    1.3682    0.3381 C   0  0  0  0  0  0  0  0  0  0  0  0
    1.5700    2.8083    0.7487 Br  0  0  0  0  0  0  0  0  0  0  0  0
   -0.6033    0.8828   -0.4498 H   0  0  0  0  0  0  0  0  0  0  0  0
    0.1757    0.1922    1.0120 H   0  0  0  0  0  0  0  0  0  0  0  0
   -5.8720   -0.7135   -0.0744 H   0  0  0  0  0  0  0  0  0  0  0  0
   -5.4874    0.8440    1.7204 H   0  0  0  0  0  0  0  0  0  0  0  0
    3.7192   -1.4832   -1.1281 H   0  0  0  0  0  0  0  0  0  0  0  0
  1  2  2  0
  2  3  1  0
  3  4  1  0
  4  5  1  0
  5  6  2  0
  6  7  1  0
  7  8  2  0
  8  9  1  0
  2 10  1  0
 10 11  1  0
 11 12  2  0
 12 13  1  0
 12 14  1  0
 14 15  1  0
 15 16  1  0
  9  5  1  0
 15 10  2  0
  3 17  1  0
  3 18  1  0
  7 19  1  0
  8 20  1  0
 11 21  1  0
M  CHG  1   7   1
M  END
>  <enum_code>  
M

>  <uuid>  
276e4ef4-028a-465d-8f14-8bfdb19de869

>  <sha256>  
4fbc411484235e629e48d8624ec40f34931f7851c15a0ea030d44a023231e732

>  <std_smi>  
O=C(CSc1nncs1)c1cc(Br)sc1Br

>  <enum_smi>  
O=C(CSc1n[nH+]cs1)c1cc(Br)sc1Br

$$$$
f8faa166-43bd-4b33-a59c-89b640e7580b
     RDKit          3D

 52 54  0  0  0  0  0  0  0  0999 V2000
    6.0402    0.7545   -1.7599 C   0  0  0  0  0  0  0  0  0  0  0  0
    4.8915    0.1881   -0.9956 C   0  0  0  0  0  0  0  0  0  0  0  0
    4.4899   -1.1852   -1.4414 C   0  0  0  0  0  0  0  0  0  0  0  0
    3.7339    0.9963   -1.0862 O   0  0  0  0  0  0  0  0  0  0  0  0
    2.9626    0.4462    0.0511 B   0  0  0  0  0  0  0  0  0  0  0  0
    1.4222    0.3032    0.1002 C   0  0  0  0  0  0  0  0  0  0  0  0
    0.8439   -0.8584   -0.3696 C   0  0  0  0  0  0  0  0  0  0  0  0
   -0.5495   -0.9824   -0.3228 C   0  0  0  0  0  0  0  0  0  0  0  0
   -1.3212    0.0283    0.1787 C   0  0  0  0  0  0  0  0  0  0  0  0
   -2.8609   -0.0915    0.2379 B   0  0  0  0  0  0  0  0  0  0  0  0
   -3.7370    0.1888   -0.8924 O   0  0  0  0  0  0  0  0  0  0  0  0
   -5.0361    0.2196   -0.4048 C   0  0  0  0  0  0  0  0  0  0  0  0
   -5.9163   -0.5140   -1.3964 C   0  0  0  0  0  0  0  0  0  0  0  0
   -5.4473    1.6521   -0.2607 C   0  0  0  0  0  0  0  0  0  0  0  0
   -4.9228   -0.5103    0.9026 C   0  0  0  0  0  0  0  0  0  0  0  0
   -4.7298   -1.9823    0.6318 C   0  0  0  0  0  0  0  0  0  0  0  0
   -6.1018   -0.2905    1.8082 C   0  0  0  0  0  0  0  0  0  0  0  0
   -3.7363   -0.0147    1.4283 O   0  0  0  0  0  0  0  0  0  0  0  0
   -0.7303    1.1812    0.6437 C   0  0  0  0  0  0  0  0  0  0  0  0
    0.6596    1.3288    0.6076 C   0  0  0  0  0  0  0  0  0  0  0  0
    3.8671   -0.2527    0.9603 O   0  0  0  0  0  0  0  0  0  0  0  0
    5.1106    0.1935    0.5064 C   0  0  0  0  0  0  0  0  0  0  0  0
    6.2296   -0.7206    0.9237 C   0  0  0  0  0  0  0  0  0  0  0  0
    5.3008    1.5999    1.0263 C   0  0  0  0  0  0  0  0  0  0  0  0
    6.4472   -0.0192   -2.4568 H   0  0  0  0  0  0  0  0  0  0  0  0
    6.8581    1.1549   -1.1253 H   0  0  0  0  0  0  0  0  0  0  0  0
    5.7112    1.5968   -2.4216 H   0  0  0  0  0  0  0  0  0  0  0  0
    3.6674   -1.1134   -2.2019 H   0  0  0  0  0  0  0  0  0  0  0  0
    4.0128   -1.6962   -0.5643 H   0  0  0  0  0  0  0  0  0  0  0  0
    5.3105   -1.7958   -1.8189 H   0  0  0  0  0  0  0  0  0  0  0  0
    1.4615   -1.6530   -0.7646 H   0  0  0  0  0  0  0  0  0  0  0  0
   -0.9847   -1.8995   -0.6952 H   0  0  0  0  0  0  0  0  0  0  0  0
   -5.4669   -1.4814   -1.6776 H   0  0  0  0  0  0  0  0  0  0  0  0
   -6.9537   -0.6179   -1.0340 H   0  0  0  0  0  0  0  0  0  0  0  0
   -5.9168    0.1120   -2.3297 H   0  0  0  0  0  0  0  0  0  0  0  0
   -4.6158    2.3612   -0.5389 H   0  0  0  0  0  0  0  0  0  0  0  0
   -6.2731    1.8723   -0.9692 H   0  0  0  0  0  0  0  0  0  0  0  0
   -5.7362    1.9328    0.7655 H   0  0  0  0  0  0  0  0  0  0  0  0
   -5.6453   -2.3927    0.1509 H   0  0  0  0  0  0  0  0  0  0  0  0
   -4.6807   -2.4907    1.6342 H   0  0  0  0  0  0  0  0  0  0  0  0
   -3.8184   -2.1459    0.0475 H   0  0  0  0  0  0  0  0  0  0  0  0
   -5.7113    0.2325    2.7246 H   0  0  0  0  0  0  0  0  0  0  0  0
   -6.4720   -1.2756    2.1754 H   0  0  0  0  0  0  0  0  0  0  0  0
   -6.9374    0.2392    1.3478 H   0  0  0  0  0  0  0  0  0  0  0  0
   -1.3412    1.9631    1.0327 H   0  0  0  0  0  0  0  0  0  0  0  0
    1.1476    2.2193    0.9645 H   0  0  0  0  0  0  0  0  0  0  0  0
    5.9791   -1.1525    1.9172 H   0  0  0  0  0  0  0  0  0  0  0  0
    7.1273   -0.0678    1.0970 H   0  0  0  0  0  0  0  0  0  0  0  0
    6.4541   -1.4974    0.1615 H   0  0  0  0  0  0  0  0  0  0  0  0
    4.2907    2.0740    1.0484 H   0  0  0  0  0  0  0  0  0  0  0  0
    5.6550    1.5266    2.0717 H   0  0  0  0  0  0  0  0  0  0  0  0
    5.9686    2.2029    0.3821 H   0  0  0  0  0  0  0  0  0  0  0  0
  1  2  1  0
  2  3  1  0
  2  4  1  0
  4  5  1  0
  5  6  1  0
  6  7  2  0
  7  8  1  0
  8  9  2  0
  9 10  1  0
 10 11  1  0
 11 12  1  0
 12 13  1  0
 12 14  1  0
 12 15  1  0
 15 16  1  0
 15 17  1  0
 15 18  1  0
  9 19  1  0
 19 20  2  0
  5 21  1  0
 21 22  1  0
 22 23  1  0
 22 24  1  0
 22  2  1  0
 20  6  1  0
 18 10  1  0
  1 25  1  0
  1 26  1  0
  1 27  1  0
  3 28  1  0
  3 29  1  0
  3 30  1  0
  7 31  1  0
  8 32  1  0
 13 33  1  0
 13 34  1  0
 13 35  1  0
 14 36  1  0
 14 37  1  0
 14 38  1  0
 16 39  1  0
 16 40  1  0
 16 41  1  0
 17 42  1  0
 17 43  1  0
 17 44  1  0
 19 45  1  0
 20 46  1  0
 23 47  1  0
 23 48  1  0
 23 49  1  0
 24 50  1  0
 24 51  1  0
 24 52  1  0
M  END
>  <enum_code>  
B

>  <uuid>  
f8faa166-43bd-4b33-a59c-89b640e7580b

>  <sha256>  
8e0f53aaf85817d69423e2aef571b9b890c3014cf11a82a88b0595f3c9243ec1

>  <std_smi>  
CC1(C)OB(c2ccc(B3OC(C)(C)C(C)(C)O3)cc2)OC1(C)C

>  <enum_smi>  
CC1(C)OB(c2ccc(B3OC(C)(C)C(C)(C)O3)cc2)OC1(C)C

$$$$
b37a12b8-97b3-439d-80e5-6891cb0bc52c
     RDKit          3D

 35 36  0  0  0  0  0  0  0  0999 V2000
    6.4692    0.0424   -1.3579 C   0  0  0  0  0  0  0  0  0  0  0  0
    5.5816    0.3216   -0.3940 C   0  0  0  0  0  0  0  0  0  0  0  0
    4.2829   -0.3998   -0.1902 C   0  0  0  0  0  0  0  0  0  0  0  0
    3.2441    0.5761   -0.2234 O   0  0  0  0  0  0  0  0  0  0  0  0
    1.9657    0.1293   -0.0359 C   0  0  0  0  0  0  0  0  0  0  0  0
    1.5784   -1.1867    0.1988 C   0  0  0  0  0  0  0  0  0  0  0  0
    0.2245   -1.5004    0.3744 C   0  0  0  0  0  0  0  0  0  0  0  0
   -0.7715   -0.5101    0.3200 C   0  0  0  0  0  0  0  0  0  0  0  0
   -2.2271   -0.9154    0.5186 C   0  0  0  0  0  0  0  0  0  0  0  0
   -2.8692   -0.3200    1.7826 C   0  0  0  0  0  0  0  0  0  0  0  0
   -3.5208    1.0435    1.5686 C   0  0  0  0  0  0  0  0  0  0  0  0
   -4.4359    1.0298    0.4300 N   0  0  0  0  0  0  0  0  0  0  0  0
   -3.7432    0.6822   -0.8084 C   0  0  0  0  0  0  0  0  0  0  0  0
   -3.1047   -0.7014   -0.7257 C   0  0  0  0  0  0  0  0  0  0  0  0
   -0.3659    0.8072    0.0835 C   0  0  0  0  0  0  0  0  0  0  0  0
    0.9865    1.1205   -0.0918 C   0  0  0  0  0  0  0  0  0  0  0  0
    7.3886    0.6134   -1.4462 H   0  0  0  0  0  0  0  0  0  0  0  0
    6.2987   -0.7484   -2.0817 H   0  0  0  0  0  0  0  0  0  0  0  0
    5.7938    1.1285    0.3036 H   0  0  0  0  0  0  0  0  0  0  0  0
    4.3112   -0.8902    0.7901 H   0  0  0  0  0  0  0  0  0  0  0  0
    4.1282   -1.1466   -0.9782 H   0  0  0  0  0  0  0  0  0  0  0  0
    2.2973   -1.9970    0.2528 H   0  0  0  0  0  0  0  0  0  0  0  0
   -0.0452   -2.5394    0.5562 H   0  0  0  0  0  0  0  0  0  0  0  0
   -2.2112   -2.0032    0.6827 H   0  0  0  0  0  0  0  0  0  0  0  0
   -2.1420   -0.2600    2.6015 H   0  0  0  0  0  0  0  0  0  0  0  0
   -3.6530   -1.0128    2.1200 H   0  0  0  0  0  0  0  0  0  0  0  0
   -2.7689    1.8294    1.4478 H   0  0  0  0  0  0  0  0  0  0  0  0
   -4.0906    1.3034    2.4682 H   0  0  0  0  0  0  0  0  0  0  0  0
   -4.8629    1.9507    0.3300 H   0  0  0  0  0  0  0  0  0  0  0  0
   -3.0033    1.4475   -1.0626 H   0  0  0  0  0  0  0  0  0  0  0  0
   -4.4735    0.6818   -1.6257 H   0  0  0  0  0  0  0  0  0  0  0  0
   -2.5407   -0.9060   -1.6440 H   0  0  0  0  0  0  0  0  0  0  0  0
   -3.9176   -1.4407   -0.6953 H   0  0  0  0  0  0  0  0  0  0  0  0
   -1.0820    1.6189    0.0290 H   0  0  0  0  0  0  0  0  0  0  0  0
    1.2782    2.1521   -0.2751 H   0  0  0  0  0  0  0  0  0  0  0  0
  1  2  2  3
  2  3  1  0
  3  4  1  0
  4  5  1  0
  5  6  2  0
  6  7  1  0
  7  8  2  0
  8  9  1  0
  9 10  1  0
 10 11  1  0
 11 12  1  0
 12 13  1  0
 13 14  1  0
  8 15  1  0
 15 16  2  0
 16  5  1  0
 14  9  1  0
  1 17  1  0
  1 18  1  0
  2 19  1  0
  3 20  1  0
  3 21  1  0
  6 22  1  0
  7 23  1  0
  9 24  1  0
 10 25  1  0
 10 26  1  0
 11 27  1  0
 11 28  1  0
 12 29  1  0
 13 30  1  0
 13 31  1  0
 14 32  1  0
 14 33  1  0
 15 34  1  0
 16 35  1  0
M  END
>  <enum_code>  
B

>  <uuid>  
b37a12b8-97b3-439d-80e5-6891cb0bc52c

>  <sha256>  
3e748057807b74fc7531edb57dc57e14fcd39528db1c104741d394cde45d344f

>  <std_smi>  
C=CCOc1ccc(C2CCNCC2)cc1

>  <enum_smi>  
C=CCOc1ccc(C2CCNCC2)cc1

$$$$
8fa5b73b-dafc-4f74-8764-06a530bef9f6
     RDKit          3D

 36 37  0  0  0  0  0  0  0  0999 V2000
    6.4845   -1.1415    0.1097 C   0  0  0  0  0  0  0  0  0  0  0  0
    5.2067   -0.8357   -0.1530 C   0  0  0  0  0  0  0  0  0  0  0  0
    4.6533    0.5593   -0.1757 C   0  0  0  0  0  0  0  0  0  0  0  0
    3.5714    0.6696    0.7502 O   0  0  0  0  0  0  0  0  0  0  0  0
    2.2964    0.4403    0.3196 C   0  0  0  0  0  0  0  0  0  0  0  0
    1.3082    0.7453    1.2565 C   0  0  0  0  0  0  0  0  0  0  0  0
   -0.0454    0.5552    0.9639 C   0  0  0  0  0  0  0  0  0  0  0  0
   -0.4394    0.0469   -0.2802 C   0  0  0  0  0  0  0  0  0  0  0  0
   -1.8967   -0.1707   -0.6420 C   0  0  0  0  0  0  0  0  0  0  0  0
   -2.6905    1.1502   -0.7054 C   0  0  0  0  0  0  0  0  0  0  0  0
   -3.6022    1.3371    0.4934 C   0  0  0  0  0  0  0  0  0  0  0  0
   -4.5655    0.1949    0.5952 N   0  3  0  0  0  4  0  0  0  0  0  0
   -4.0696   -1.1489    0.1571 C   0  0  0  0  0  0  0  0  0  0  0  0
   -2.5591   -1.2159    0.2744 C   0  0  0  0  0  0  0  0  0  0  0  0
    0.5602   -0.2636   -1.2147 C   0  0  0  0  0  0  0  0  0  0  0  0
    1.9156   -0.0714   -0.9171 C   0  0  0  0  0  0  0  0  0  0  0  0
    7.2239   -0.3776    0.3310 H   0  0  0  0  0  0  0  0  0  0  0  0
    6.8190   -2.1749    0.1157 H   0  0  0  0  0  0  0  0  0  0  0  0
    4.5104   -1.6437   -0.3603 H   0  0  0  0  0  0  0  0  0  0  0  0
    4.3736    0.8681   -1.1887 H   0  0  0  0  0  0  0  0  0  0  0  0
    5.4168    1.2731    0.1553 H   0  0  0  0  0  0  0  0  0  0  0  0
    1.6017    1.1356    2.2293 H   0  0  0  0  0  0  0  0  0  0  0  0
   -0.7676    0.8072    1.7335 H   0  0  0  0  0  0  0  0  0  0  0  0
   -1.9226   -0.5839   -1.6610 H   0  0  0  0  0  0  0  0  0  0  0  0
   -2.0255    2.0160   -0.8091 H   0  0  0  0  0  0  0  0  0  0  0  0
   -3.3134    1.1395   -1.6104 H   0  0  0  0  0  0  0  0  0  0  0  0
   -4.2022    2.2483    0.4094 H   0  0  0  0  0  0  0  0  0  0  0  0
   -3.0455    1.3700    1.4346 H   0  0  0  0  0  0  0  0  0  0  0  0
   -5.4132    0.4199    0.0551 H   0  0  0  0  0  0  0  0  0  0  0  0
   -4.8849    0.1319    1.5726 H   0  0  0  0  0  0  0  0  0  0  0  0
   -4.3981   -1.2870   -0.8786 H   0  0  0  0  0  0  0  0  0  0  0  0
   -4.5642   -1.8924    0.7891 H   0  0  0  0  0  0  0  0  0  0  0  0
   -2.2078   -2.2181   -0.0007 H   0  0  0  0  0  0  0  0  0  0  0  0
   -2.2757   -1.0730    1.3247 H   0  0  0  0  0  0  0  0  0  0  0  0
    0.3025   -0.6654   -2.1934 H   0  0  0  0  0  0  0  0  0  0  0  0
    2.6446   -0.3445   -1.6734 H   0  0  0  0  0  0  0  0  0  0  0  0
  1  2  2  3
  2  3  1  0
  3  4  1  0
  4  5  1  0
  5  6  2  0
  6  7  1  0
  7  8  2  0
  8  9  1  0
  9 10  1  0
 10 11  1  0
 11 12  1  0
 12 13  1  0
 13 14  1  0
  8 15  1  0
 15 16  2  0
 16  5  1  0
 14  9  1  0
  1 17  1  0
  1 18  1  0
  2 19  1  0
  3 20  1  0
  3 21  1  0
  6 22  1  0
  7 23  1  0
  9 24  1  0
 10 25  1  0
 10 26  1  0
 11 27  1  0
 11 28  1  0
 12 29  1  0
 12 30  1  0
 13 31  1  0
 13 32  1  0
 14 33  1  0
 14 34  1  0
 15 35  1  0
 16 36  1  0
M  CHG  1  12   1
M  END
>  <enum_code>  
M

>  <uuid>  
8fa5b73b-dafc-4f74-8764-06a530bef9f6

>  <sha256>  
3e748057807b74fc7531edb57dc57e14fcd39528db1c104741d394cde45d344f

>  <std_smi>  
C=CCOc1ccc(C2CCNCC2)cc1

>  <enum_smi>  
C=CCOc1ccc(C2CC[NH2+]CC2)cc1

$$$$
efff4c0c-d806-4178-8ad4-a3398fe6f5ef
     RDKit          3D

 25 26  0  0  0  0  0  0  0  0999 V2000
    5.0290    0.6917   -0.3333 O   0  0  0  0  0  0  0  0  0  0  0  0
    4.1645    0.0509    0.6609 B   0  0  0  0  0  0  0  0  0  0  0  0
    4.6938   -1.1899    1.2670 O   0  0  0  0  0  0  0  0  0  0  0  0
    2.6317    0.0629    0.3579 C   0  0  0  0  0  0  0  0  0  0  0  0
    2.1074    0.4466   -0.8500 C   0  0  0  0  0  0  0  0  0  0  0  0
    0.7234    0.4238   -1.0258 C   0  0  0  0  0  0  0  0  0  0  0  0
   -0.1228    0.0268   -0.0187 C   0  0  0  0  0  0  0  0  0  0  0  0
   -1.5848   -0.0105   -0.1658 C   0  0  0  0  0  0  0  0  0  0  0  0
   -2.3744   -0.4246    0.9009 C   0  0  0  0  0  0  0  0  0  0  0  0
   -3.7481   -0.4833    0.8316 C   0  0  0  0  0  0  0  0  0  0  0  0
   -4.4079   -0.1242   -0.3284 C   0  0  0  0  0  0  0  0  0  0  0  0
   -5.7581   -0.1710   -0.4284 F   0  0  0  0  0  0  0  0  0  0  0  0
   -3.6396    0.2886   -1.3951 C   0  0  0  0  0  0  0  0  0  0  0  0
   -2.2417    0.3465   -1.3191 C   0  0  0  0  0  0  0  0  0  0  0  0
    0.4475   -0.3384    1.1437 N   0  0  0  0  0  0  0  0  0  0  0  0
    1.7752   -0.3315    1.3558 C   0  0  0  0  0  0  0  0  0  0  0  0
    4.8750    1.6575   -0.4127 H   0  0  0  0  0  0  0  0  0  0  0  0
    4.1299   -1.4915    2.0212 H   0  0  0  0  0  0  0  0  0  0  0  0
    2.7844    0.7553   -1.6299 H   0  0  0  0  0  0  0  0  0  0  0  0
    0.3519    0.7260   -1.9701 H   0  0  0  0  0  0  0  0  0  0  0  0
   -1.8782   -0.7107    1.8200 H   0  0  0  0  0  0  0  0  0  0  0  0
   -4.3643   -0.8063    1.6636 H   0  0  0  0  0  0  0  0  0  0  0  0
   -4.1318    0.5722   -2.3060 H   0  0  0  0  0  0  0  0  0  0  0  0
   -1.6547    0.6727   -2.1656 H   0  0  0  0  0  0  0  0  0  0  0  0
    2.1927   -0.6399    2.3262 H   0  0  0  0  0  0  0  0  0  0  0  0
  1  2  1  0
  2  3  1  0
  2  4  1  0
  4  5  2  0
  5  6  1  0
  6  7  2  0
  7  8  1  0
  8  9  2  0
  9 10  1  0
 10 11  2  0
 11 12  1  0
 11 13  1  0
 13 14  2  0
  7 15  1  0
 15 16  2  0
 16  4  1  0
 14  8  1  0
  1 17  1  0
  3 18  1  0
  5 19  1  0
  6 20  1  0
  9 21  1  0
 10 22  1  0
 13 23  1  0
 14 24  1  0
 16 25  1  0
M  END
>  <enum_code>  
B

>  <uuid>  
efff4c0c-d806-4178-8ad4-a3398fe6f5ef

>  <sha256>  
c72bb105d6b035de27114119af225dba57f2c17a45c3569f6b7c38d2c0b87170

>  <std_smi>  
OB(O)c1ccc(-c2ccc(F)cc2)nc1

>  <enum_smi>  
OB(O)c1ccc(-c2ccc(F)cc2)nc1

$$$$
ef3352f1-75bf-4207-b16d-25fd426a7589
     RDKit          3D

 26 27  0  0  0  0  0  0  0  0999 V2000
    4.7108   -1.5349   -0.9523 O   0  0  0  0  0  0  0  0  0  0  0  0
    4.0649   -1.1728    0.3163 B   0  0  0  0  0  0  0  0  0  0  0  0
    4.9151   -0.4438    1.2813 O   0  0  0  0  0  0  0  0  0  0  0  0
    2.5683   -0.7563    0.2647 C   0  0  0  0  0  0  0  0  0  0  0  0
    2.1195    0.4432    0.7686 C   0  0  0  0  0  0  0  0  0  0  0  0
    0.7670    0.7974    0.7113 C   0  0  0  0  0  0  0  0  0  0  0  0
   -0.1624   -0.0490    0.1451 C   0  0  0  0  0  0  0  0  0  0  0  0
   -1.5564    0.2968    0.0767 C   0  0  0  0  0  0  0  0  0  0  0  0
   -2.4985   -0.5320   -0.4830 C   0  0  0  0  0  0  0  0  0  0  0  0
   -3.8542   -0.2269   -0.5646 C   0  0  0  0  0  0  0  0  0  0  0  0
   -4.2842    0.9725   -0.0576 C   0  0  0  0  0  0  0  0  0  0  0  0
   -5.6041    1.2953   -0.1246 F   0  0  0  0  0  0  0  0  0  0  0  0
   -3.3820    1.8384    0.5133 C   0  0  0  0  0  0  0  0  0  0  0  0
   -2.0227    1.4893    0.5743 C   0  0  0  0  0  0  0  0  0  0  0  0
    0.3076   -1.2132   -0.3381 N   0  3  0  0  0  4  0  0  0  0  0  0
    1.6169   -1.5787   -0.2936 C   0  0  0  0  0  0  0  0  0  0  0  0
    4.2306   -1.1174   -1.7294 H   0  0  0  0  0  0  0  0  0  0  0  0
    5.0177    0.4740    0.8795 H   0  0  0  0  0  0  0  0  0  0  0  0
    2.8463    1.1152    1.2162 H   0  0  0  0  0  0  0  0  0  0  0  0
    0.5198    1.7605    1.1350 H   0  0  0  0  0  0  0  0  0  0  0  0
   -2.2496   -1.4931   -0.9054 H   0  0  0  0  0  0  0  0  0  0  0  0
   -4.5734   -0.9180   -1.0201 H   0  0  0  0  0  0  0  0  0  0  0  0
   -3.6948    2.7914    0.9210 H   0  0  0  0  0  0  0  0  0  0  0  0
   -1.3715    2.1933    1.0245 H   0  0  0  0  0  0  0  0  0  0  0  0
   -0.3445   -1.8975   -0.7790 H   0  0  0  0  0  0  0  0  0  0  0  0
    1.9138   -2.5339   -0.7050 H   0  0  0  0  0  0  0  0  0  0  0  0
  1  2  1  0
  2  3  1  0
  2  4  1  0
  4  5  2  0
  5  6  1  0
  6  7  2  0
  7  8  1  0
  8  9  2  0
  9 10  1  0
 10 11  2  0
 11 12  1  0
 11 13  1  0
 13 14  2  0
  7 15  1  0
 15 16  2  0
 16  4  1  0
 14  8  1  0
  1 17  1  0
  3 18  1  0
  5 19  1  0
  6 20  1  0
  9 21  1  0
 10 22  1  0
 13 23  1  0
 14 24  1  0
 15 25  1  0
 16 26  1  0
M  CHG  1  15   1
M  END
>  <enum_code>  
M

>  <uuid>  
ef3352f1-75bf-4207-b16d-25fd426a7589

>  <sha256>  
c72bb105d6b035de27114119af225dba57f2c17a45c3569f6b7c38d2c0b87170

>  <std_smi>  
OB(O)c1ccc(-c2ccc(F)cc2)nc1

>  <enum_smi>  
OB(O)c1ccc(-c2ccc(F)cc2)[nH+]c1

$$$$
1ca2cdcc-59cc-4469-8a94-5e180de2a614
     RDKit          3D

 33 34  0  0  0  0  0  0  0  0999 V2000
   -2.7715    0.4428    1.6356 C   0  0  0  0  0  0  0  0  0  0  0  0
   -2.5485   -0.9050    0.9586 C   0  0  0  0  0  0  0  0  0  0  0  0
   -1.8004   -0.8837   -0.3908 C   0  0  0  0  0  0  0  0  0  0  0  0
   -2.7339   -0.7274   -1.6117 C   0  0  0  0  0  0  0  0  0  0  0  0
   -3.5814    0.5347   -1.6544 C   0  0  0  0  0  0  0  0  0  0  0  0
   -0.7608    0.1413   -0.4306 N   0  0  0  0  0  0  0  0  0  0  0  0
    0.4945   -0.2009    0.0822 C   0  0  0  0  0  0  0  0  0  0  0  0
    0.6264   -1.1070    1.0869 N   0  0  0  0  0  0  0  0  0  0  0  0
    1.8614   -1.3813    1.5607 C   0  0  0  0  0  0  0  0  0  0  0  0
    3.0449   -0.8753    1.1610 N   0  0  0  0  0  0  0  0  0  0  0  0
    2.8682    0.0065    0.1646 C   0  0  0  0  0  0  0  0  0  0  0  0
    1.6718    0.3913   -0.4179 C   0  0  0  0  0  0  0  0  0  0  0  0
    1.8911    1.3115   -1.4273 N   0  0  0  0  0  0  0  0  0  0  0  0
    3.1964    1.4882   -1.4418 C   0  0  0  0  0  0  0  0  0  0  0  0
    3.8243    0.7219   -0.4991 N   0  0  0  0  0  0  0  0  0  0  0  0
    5.2384    0.6681   -0.2416 C   0  0  0  0  0  0  0  0  0  0  0  0
   -3.3133    1.1457    1.0006 H   0  0  0  0  0  0  0  0  0  0  0  0
   -1.8226    0.9047    1.9258 H   0  0  0  0  0  0  0  0  0  0  0  0
   -3.3572    0.3034    2.5504 H   0  0  0  0  0  0  0  0  0  0  0  0
   -1.9804   -1.5274    1.6616 H   0  0  0  0  0  0  0  0  0  0  0  0
   -3.5135   -1.4114    0.8339 H   0  0  0  0  0  0  0  0  0  0  0  0
   -1.3411   -1.8741   -0.5256 H   0  0  0  0  0  0  0  0  0  0  0  0
   -3.4048   -1.5944   -1.6592 H   0  0  0  0  0  0  0  0  0  0  0  0
   -2.1257   -0.7611   -2.5252 H   0  0  0  0  0  0  0  0  0  0  0  0
   -2.9742    1.4361   -1.5315 H   0  0  0  0  0  0  0  0  0  0  0  0
   -4.0928    0.6056   -2.6202 H   0  0  0  0  0  0  0  0  0  0  0  0
   -4.3552    0.5183   -0.8820 H   0  0  0  0  0  0  0  0  0  0  0  0
   -0.6349    0.6191   -1.3218 H   0  0  0  0  0  0  0  0  0  0  0  0
    1.9037   -2.1058    2.3690 H   0  0  0  0  0  0  0  0  0  0  0  0
    3.7309    2.1528   -2.1089 H   0  0  0  0  0  0  0  0  0  0  0  0
    5.4159    0.9707    0.7936 H   0  0  0  0  0  0  0  0  0  0  0  0
    5.5839   -0.3557   -0.4065 H   0  0  0  0  0  0  0  0  0  0  0  0
    5.7605    1.3480   -0.9197 H   0  0  0  0  0  0  0  0  0  0  0  0
  1  2  1  0
  2  3  1  0
  3  4  1  0
  4  5  1  0
  3  6  1  0
  6  7  1  0
  7  8  2  0
  8  9  1  0
  9 10  2  0
 10 11  1  0
 11 12  2  0
 12 13  1  0
 13 14  2  0
 14 15  1  0
 15 16  1  0
 12  7  1  0
 15 11  1  0
  1 17  1  0
  1 18  1  0
  1 19  1  0
  2 20  1  0
  2 21  1  0
  3 22  1  0
  4 23  1  0
  4 24  1  0
  5 25  1  0
  5 26  1  0
  5 27  1  0
  6 28  1  0
  9 29  1  0
 14 30  1  0
 16 31  1  0
 16 32  1  0
 16 33  1  0
M  END
>  <enum_code>  
B

>  <uuid>  
1ca2cdcc-59cc-4469-8a94-5e180de2a614

>  <sha256>  
1c5e02397d5873f6efa1b3fea650d685ce255b2bb069a261985e6139479ba70b

>  <std_smi>  
CCC(CC)Nc1ncnc2c1ncn2C

>  <enum_smi>  
CCC(CC)Nc1ncnc2c1ncn2C

$$$$
81c7cd19-d840-4a4c-afe6-be17c93fa6e8
     RDKit          3D

 33 34  0  0  0  0  0  0  0  0999 V2000
   -2.0175   -2.1432   -1.6006 C   0  0  0  0  0  0  0  0  0  0  0  0
   -2.6480   -1.7501   -0.2713 C   0  0  0  0  0  0  0  0  0  0  0  0
   -2.1828   -0.3720    0.2278 C   0  0  0  0  0  0  0  0  0  0  0  0
   -2.9739    0.0224    1.4877 C   0  0  0  0  0  0  0  0  0  0  0  0
   -2.6565    1.4369    1.9563 C   0  0  0  0  0  0  0  0  0  0  0  0
   -0.7724   -0.4552    0.5927 N   0  0  0  0  0  0  0  0  0  0  0  0
    0.1327    0.1118   -0.1130 C   0  0  0  0  0  0  0  0  0  0  0  0
    0.0640    0.8522   -1.2791 N   0  0  0  0  0  0  0  0  0  0  0  0
    1.1321    1.4109   -1.9524 C   0  0  0  0  0  0  0  0  0  0  0  0
    2.3853    1.3426   -1.6073 N   0  0  0  0  0  0  0  0  0  0  0  0
    2.5129    0.6224   -0.4590 C   0  0  0  0  0  0  0  0  0  0  0  0
    1.5293    0.0122    0.3056 C   0  0  0  0  0  0  0  0  0  0  0  0
    2.0748   -0.6218    1.3971 N   0  0  0  0  0  0  0  0  0  0  0  0
    3.3698   -0.4003    1.2972 C   0  0  0  0  0  0  0  0  0  0  0  0
    3.6799    0.3464    0.1923 N   0  0  0  0  0  0  0  0  0  0  0  0
    4.9950    0.7660   -0.2127 C   0  0  0  0  0  0  0  0  0  0  0  0
   -0.9346   -2.2694   -1.5089 H   0  0  0  0  0  0  0  0  0  0  0  0
   -2.2150   -1.3876   -2.3675 H   0  0  0  0  0  0  0  0  0  0  0  0
   -2.4346   -3.0942   -1.9471 H   0  0  0  0  0  0  0  0  0  0  0  0
   -2.4177   -2.5219    0.4736 H   0  0  0  0  0  0  0  0  0  0  0  0
   -3.7375   -1.7425   -0.3984 H   0  0  0  0  0  0  0  0  0  0  0  0
   -2.3873    0.3759   -0.5457 H   0  0  0  0  0  0  0  0  0  0  0  0
   -4.0490   -0.0389    1.2799 H   0  0  0  0  0  0  0  0  0  0  0  0
   -2.7634   -0.6791    2.3047 H   0  0  0  0  0  0  0  0  0  0  0  0
   -2.8607    2.1663    1.1661 H   0  0  0  0  0  0  0  0  0  0  0  0
   -3.2747    1.6936    2.8225 H   0  0  0  0  0  0  0  0  0  0  0  0
   -1.6077    1.5346    2.2530 H   0  0  0  0  0  0  0  0  0  0  0  0
   -0.8493    0.9733   -1.6839 H   0  0  0  0  0  0  0  0  0  0  0  0
    0.8318    1.9551   -2.8631 H   0  0  0  0  0  0  0  0  0  0  0  0
    4.1188   -0.7556    1.9929 H   0  0  0  0  0  0  0  0  0  0  0  0
    5.7341    0.3972    0.5030 H   0  0  0  0  0  0  0  0  0  0  0  0
    5.2027    0.3536   -1.2034 H   0  0  0  0  0  0  0  0  0  0  0  0
    5.0196    1.8584   -0.2389 H   0  0  0  0  0  0  0  0  0  0  0  0
  1  2  1  0
  2  3  1  0
  3  4  1  0
  4  5  1  0
  3  6  1  0
  6  7  2  3
  7  8  1  0
  8  9  1  0
  9 10  2  0
 10 11  1  0
 11 12  2  0
 12 13  1  0
 13 14  2  0
 14 15  1  0
 15 16  1  0
 12  7  1  0
 15 11  1  0
  1 17  1  0
  1 18  1  0
  1 19  1  0
  2 20  1  0
  2 21  1  0
  3 22  1  0
  4 23  1  0
  4 24  1  0
  5 25  1  0
  5 26  1  0
  5 27  1  0
  8 28  1  0
  9 29  1  0
 14 30  1  0
 16 31  1  0
 16 32  1  0
 16 33  1  0
M  END
>  <enum_code>  
T

>  <uuid>  
81c7cd19-d840-4a4c-afe6-be17c93fa6e8

>  <sha256>  
1c5e02397d5873f6efa1b3fea650d685ce255b2bb069a261985e6139479ba70b

>  <std_smi>  
CCC(CC)Nc1ncnc2c1ncn2C

>  <enum_smi>  
CCC(CC)N=c1[nH]cnc2c1ncn2C

$$$$
25053e38-b430-4ccf-88ed-3694d39c486b
     RDKit          3D

 33 34  0  0  0  0  0  0  0  0999 V2000
   -3.0624   -1.7249    1.1574 C   0  0  0  0  0  0  0  0  0  0  0  0
   -2.6125   -1.4634   -0.2748 C   0  0  0  0  0  0  0  0  0  0  0  0
   -2.1069   -0.0341   -0.5470 C   0  0  0  0  0  0  0  0  0  0  0  0
   -3.1811    1.0264   -0.2496 C   0  0  0  0  0  0  0  0  0  0  0  0
   -2.7791    2.4096   -0.7477 C   0  0  0  0  0  0  0  0  0  0  0  0
   -0.9453    0.2453    0.3011 N   0  0  0  0  0  0  0  0  0  0  0  0
    0.2250   -0.0570   -0.1374 C   0  0  0  0  0  0  0  0  0  0  0  0
    0.4516   -0.6488   -1.3797 N   0  0  0  0  0  0  0  0  0  0  0  0
    1.6738   -0.9190   -1.7258 C   0  0  0  0  0  0  0  0  0  0  0  0
    2.8215   -0.6876   -0.9967 N   0  0  0  0  0  0  0  0  0  0  0  0
    2.6422   -0.1181    0.2056 C   0  0  0  0  0  0  0  0  0  0  0  0
    1.4011    0.2163    0.6879 C   0  0  0  0  0  0  0  0  0  0  0  0
    1.5207    0.7806    1.9386 N   0  0  0  0  0  0  0  0  0  0  0  0
    2.8163    0.7786    2.1897 C   0  0  0  0  0  0  0  0  0  0  0  0
    3.5413    0.2377    1.1567 N   0  0  0  0  0  0  0  0  0  0  0  0
    4.9708    0.0886    1.1148 C   0  0  0  0  0  0  0  0  0  0  0  0
   -3.3550   -2.7741    1.2694 H   0  0  0  0  0  0  0  0  0  0  0  0
   -3.9282   -1.1122    1.4246 H   0  0  0  0  0  0  0  0  0  0  0  0
   -2.2595   -1.5244    1.8732 H   0  0  0  0  0  0  0  0  0  0  0  0
   -3.4498   -1.6809   -0.9492 H   0  0  0  0  0  0  0  0  0  0  0  0
   -1.8207   -2.1812   -0.5214 H   0  0  0  0  0  0  0  0  0  0  0  0
   -1.8604    0.0422   -1.6140 H   0  0  0  0  0  0  0  0  0  0  0  0
   -4.1223    0.7428   -0.7356 H   0  0  0  0  0  0  0  0  0  0  0  0
   -3.3756    1.0905    0.8275 H   0  0  0  0  0  0  0  0  0  0  0  0
   -1.8734    2.7664   -0.2475 H   0  0  0  0  0  0  0  0  0  0  0  0
   -2.5957    2.3998   -1.8268 H   0  0  0  0  0  0  0  0  0  0  0  0
   -3.5794    3.1290   -0.5471 H   0  0  0  0  0  0  0  0  0  0  0  0
    1.8782   -1.3871   -2.7032 H   0  0  0  0  0  0  0  0  0  0  0  0
    3.7208   -0.9475   -1.3838 H   0  0  0  0  0  0  0  0  0  0  0  0
    3.2754    1.1535    3.0957 H   0  0  0  0  0  0  0  0  0  0  0  0
    5.4089    0.4741    2.0388 H   0  0  0  0  0  0  0  0  0  0  0  0
    5.3537    0.6523    0.2603 H   0  0  0  0  0  0  0  0  0  0  0  0
    5.2061   -0.9734    1.0084 H   0  0  0  0  0  0  0  0  0  0  0  0
  1  2  1  0
  2  3  1  0
  3  4  1  0
  4  5  1  0
  3  6  1  0
  6  7  2  3
  7  8  1  0
  8  9  2  0
  9 10  1  0
 10 11  1  0
 11 12  2  0
 12 13  1  0
 13 14  2  0
 14 15  1  0
 15 16  1  0
 12  7  1  0
 15 11  1  0
  1 17  1  0
  1 18  1  0
  1 19  1  0
  2 20  1  0
  2 21  1  0
  3 22  1  0
  4 23  1  0
  4 24  1  0
  5 25  1  0
  5 26  1  0
  5 27  1  0
  9 28  1  0
 10 29  1  0
 14 30  1  0
 16 31  1  0
 16 32  1  0
 16 33  1  0
M  END
>  <enum_code>  
T

>  <uuid>  
25053e38-b430-4ccf-88ed-3694d39c486b

>  <sha256>  
1c5e02397d5873f6efa1b3fea650d685ce255b2bb069a261985e6139479ba70b

>  <std_smi>  
CCC(CC)Nc1ncnc2c1ncn2C

>  <enum_smi>  
CCC(CC)N=c1nc[nH]c2c1ncn2C

$$$$
999a68bf-25f0-462e-9aae-6c255f455ecb
     RDKit          3D

 35 36  0  0  0  0  0  0  0  0999 V2000
   -2.1217    1.5357    1.3167 C   0  0  0  0  0  0  0  0  0  0  0  0
   -1.8349    0.0453    1.4484 C   0  0  0  0  0  0  0  0  0  0  0  0
   -1.9507   -0.7770    0.1497 C   0  0  0  0  0  0  0  0  0  0  0  0
   -3.3497   -0.6654   -0.4826 C   0  0  0  0  0  0  0  0  0  0  0  0
   -3.6015   -1.6843   -1.5879 C   0  0  0  0  0  0  0  0  0  0  0  0
   -0.9270   -0.3452   -0.8613 N   0  3  0  0  0  4  0  0  0  0  0  0
    0.4359   -0.6457   -0.4880 C   0  0  0  0  0  0  0  0  0  0  0  0
    0.8572   -1.9200   -0.3863 N   0  0  0  0  0  0  0  0  0  0  0  0
    2.1637   -2.1408   -0.0686 C   0  0  0  0  0  0  0  0  0  0  0  0
    3.0837   -1.1902    0.1396 N   0  3  0  0  0  4  0  0  0  0  0  0
    2.6465    0.0884    0.0097 C   0  0  0  0  0  0  0  0  0  0  0  0
    1.3360    0.4092   -0.3073 C   0  0  0  0  0  0  0  0  0  0  0  0
    1.1757    1.7627   -0.3940 N   0  0  0  0  0  0  0  0  0  0  0  0
    2.3641    2.2697   -0.1228 C   0  0  0  0  0  0  0  0  0  0  0  0
    3.2927    1.2889    0.1313 N   0  0  0  0  0  0  0  0  0  0  0  0
    4.6803    1.5185    0.4565 C   0  0  0  0  0  0  0  0  0  0  0  0
   -1.9941    2.0241    2.2886 H   0  0  0  0  0  0  0  0  0  0  0  0
   -3.1500    1.7187    0.9918 H   0  0  0  0  0  0  0  0  0  0  0  0
   -1.4441    2.0231    0.6118 H   0  0  0  0  0  0  0  0  0  0  0  0
   -0.8382   -0.0841    1.8867 H   0  0  0  0  0  0  0  0  0  0  0  0
   -2.5365   -0.3707    2.1828 H   0  0  0  0  0  0  0  0  0  0  0  0
   -1.7506   -1.8319    0.3780 H   0  0  0  0  0  0  0  0  0  0  0  0
   -4.1063   -0.8218    0.2961 H   0  0  0  0  0  0  0  0  0  0  0  0
   -3.5130    0.3399   -0.8887 H   0  0  0  0  0  0  0  0  0  0  0  0
   -4.6423   -1.6225   -1.9221 H   0  0  0  0  0  0  0  0  0  0  0  0
   -2.9658   -1.5052   -2.4594 H   0  0  0  0  0  0  0  0  0  0  0  0
   -3.4222   -2.7034   -1.2309 H   0  0  0  0  0  0  0  0  0  0  0  0
   -1.0882   -0.8209   -1.7563 H   0  0  0  0  0  0  0  0  0  0  0  0
   -0.9979    0.6675   -1.0522 H   0  0  0  0  0  0  0  0  0  0  0  0
    2.4894   -3.1758    0.0199 H   0  0  0  0  0  0  0  0  0  0  0  0
    4.0497   -1.4288    0.3718 H   0  0  0  0  0  0  0  0  0  0  0  0
    2.6058    3.3296   -0.0984 H   0  0  0  0  0  0  0  0  0  0  0  0
    4.9066    0.9945    1.3884 H   0  0  0  0  0  0  0  0  0  0  0  0
    5.2911    1.1280   -0.3612 H   0  0  0  0  0  0  0  0  0  0  0  0
    4.8565    2.5899    0.5796 H   0  0  0  0  0  0  0  0  0  0  0  0
  1  2  1  0
  2  3  1  0
  3  4  1  0
  4  5  1  0
  3  6  1  0
  6  7  1  0
  7  8  2  0
  8  9  1  0
  9 10  2  0
 10 11  1  0
 11 12  2  0
 12 13  1  0
 13 14  2  0
 14 15  1  0
 15 16  1  0
 12  7  1  0
 15 11  1  0
  1 17  1  0
  1 18  1  0
  1 19  1  0
  2 20  1  0
  2 21  1  0
  3 22  1  0
  4 23  1  0
  4 24  1  0
  5 25  1  0
  5 26  1  0
  5 27  1  0
  6 28  1  0
  6 29  1  0
  9 30  1  0
 10 31  1  0
 14 32  1  0
 16 33  1  0
 16 34  1  0
 16 35  1  0
M  CHG  2   6   1  10   1
M  END
>  <enum_code>  
M

>  <uuid>  
999a68bf-25f0-462e-9aae-6c255f455ecb

>  <sha256>  
1c5e02397d5873f6efa1b3fea650d685ce255b2bb069a261985e6139479ba70b

>  <std_smi>  
CCC(CC)Nc1ncnc2c1ncn2C

>  <enum_smi>  
CCC(CC)[NH2+]c1nc[nH+]c2c1ncn2C

$$$$
d20d077a-0a5f-4697-94a8-a79dc6c873e6
     RDKit          3D

 35 36  0  0  0  0  0  0  0  0999 V2000
   -3.9064    1.9223    0.4622 C   0  0  0  0  0  0  0  0  0  0  0  0
   -2.4307    1.5470    0.4291 C   0  0  0  0  0  0  0  0  0  0  0  0
   -2.1925    0.0316    0.3076 C   0  0  0  0  0  0  0  0  0  0  0  0
   -2.6285   -0.5680   -1.0396 C   0  0  0  0  0  0  0  0  0  0  0  0
   -2.4713   -2.0835   -1.0931 C   0  0  0  0  0  0  0  0  0  0  0  0
   -0.7934   -0.2966    0.6305 N   0  0  0  0  0  0  0  0  0  0  0  0
    0.3742    0.0546    0.0013 C   0  0  0  0  0  0  0  0  0  0  0  0
    0.4049    0.8190   -1.1096 N   0  3  0  0  0  4  0  0  0  0  0  0
    1.5291    1.1815   -1.7537 C   0  0  0  0  0  0  0  0  0  0  0  0
    2.7840    0.8399   -1.3922 N   0  0  0  0  0  0  0  0  0  0  0  0
    2.7870    0.0619   -0.2663 C   0  0  0  0  0  0  0  0  0  0  0  0
    1.6568   -0.3392    0.4347 C   0  0  0  0  0  0  0  0  0  0  0  0
    2.1353   -1.1036    1.4894 N   0  3  0  0  0  4  0  0  0  0  0  0
    3.4765   -1.1705    1.4433 C   0  0  0  0  0  0  0  0  0  0  0  0
    3.8795   -0.4632    0.3771 N   0  0  0  0  0  0  0  0  0  0  0  0
    5.2689   -0.2817   -0.0336 C   0  0  0  0  0  0  0  0  0  0  0  0
   -4.4004    1.6953   -0.4868 H   0  0  0  0  0  0  0  0  0  0  0  0
   -4.0154    2.9967    0.6425 H   0  0  0  0  0  0  0  0  0  0  0  0
   -4.4304    1.3912    1.2630 H   0  0  0  0  0  0  0  0  0  0  0  0
   -1.9654    1.9121    1.3537 H   0  0  0  0  0  0  0  0  0  0  0  0
   -1.9528    2.0898   -0.3925 H   0  0  0  0  0  0  0  0  0  0  0  0
   -2.8003   -0.4500    1.0858 H   0  0  0  0  0  0  0  0  0  0  0  0
   -3.6850   -0.3379   -1.2177 H   0  0  0  0  0  0  0  0  0  0  0  0
   -2.0724   -0.1261   -1.8720 H   0  0  0  0  0  0  0  0  0  0  0  0
   -2.8624   -2.4678   -2.0406 H   0  0  0  0  0  0  0  0  0  0  0  0
   -3.0241   -2.5641   -0.2797 H   0  0  0  0  0  0  0  0  0  0  0  0
   -1.4211   -2.3819   -1.0217 H   0  0  0  0  0  0  0  0  0  0  0  0
   -0.7185   -0.8821    1.4624 H   0  0  0  0  0  0  0  0  0  0  0  0
   -0.4770    1.1475   -1.4940 H   0  0  0  0  0  0  0  0  0  0  0  0
    1.4145    1.8020   -2.6408 H   0  0  0  0  0  0  0  0  0  0  0  0
    1.5836   -1.5629    2.2129 H   0  0  0  0  0  0  0  0  0  0  0  0
    4.1122   -1.7023    2.1451 H   0  0  0  0  0  0  0  0  0  0  0  0
    5.5092    0.7848   -0.0236 H   0  0  0  0  0  0  0  0  0  0  0  0
    5.4010   -0.6872   -1.0403 H   0  0  0  0  0  0  0  0  0  0  0  0
    5.9308   -0.8086    0.6587 H   0  0  0  0  0  0  0  0  0  0  0  0
  1  2  1  0
  2  3  1  0
  3  4  1  0
  4  5  1  0
  3  6  1  0
  6  7  1  0
  7  8  2  0
  8  9  1  0
  9 10  2  0
 10 11  1  0
 11 12  2  0
 12 13  1  0
 13 14  2  0
 14 15  1  0
 15 16  1  0
 12  7  1  0
 15 11  1  0
  1 17  1  0
  1 18  1  0
  1 19  1  0
  2 20  1  0
  2 21  1  0
  3 22  1  0
  4 23  1  0
  4 24  1  0
  5 25  1  0
  5 26  1  0
  5 27  1  0
  6 28  1  0
  8 29  1  0
  9 30  1  0
 13 31  1  0
 14 32  1  0
 16 33  1  0
 16 34  1  0
 16 35  1  0
M  CHG  2   8   1  13   1
M  END
>  <enum_code>  
M

>  <uuid>  
d20d077a-0a5f-4697-94a8-a79dc6c873e6

>  <sha256>  
1c5e02397d5873f6efa1b3fea650d685ce255b2bb069a261985e6139479ba70b

>  <std_smi>  
CCC(CC)Nc1ncnc2c1ncn2C

>  <enum_smi>  
CCC(CC)Nc1[nH+]cnc2c1[nH+]cn2C

$$$$
9f4af7ef-1188-4657-9b71-87f64c7ba5be
     RDKit          3D

 34 35  0  0  0  0  0  0  0  0999 V2000
   -3.2316   -1.4132    0.6786 C   0  0  0  0  0  0  0  0  0  0  0  0
   -2.2725   -0.3154    1.1214 C   0  0  0  0  0  0  0  0  0  0  0  0
   -1.8387    0.5955   -0.0470 C   0  0  0  0  0  0  0  0  0  0  0  0
   -2.6121    1.9314   -0.0790 C   0  0  0  0  0  0  0  0  0  0  0  0
   -4.1040    1.7812   -0.3302 C   0  0  0  0  0  0  0  0  0  0  0  0
   -0.4131    0.9357    0.0927 N   0  0  0  0  0  0  0  0  0  0  0  0
    0.5316   -0.0008   -0.3114 C   0  0  0  0  0  0  0  0  0  0  0  0
    0.1722   -1.1110   -1.0269 N   0  0  0  0  0  0  0  0  0  0  0  0
    1.1052   -2.0196   -1.4192 C   0  0  0  0  0  0  0  0  0  0  0  0
    2.4314   -1.9742   -1.1864 N   0  0  0  0  0  0  0  0  0  0  0  0
    2.7663   -0.8500   -0.4830 C   0  0  0  0  0  0  0  0  0  0  0  0
    1.8978    0.1319   -0.0378 C   0  0  0  0  0  0  0  0  0  0  0  0
    2.6859    1.0751    0.6005 N   0  3  0  0  0  4  0  0  0  0  0  0
    3.9678    0.6960    0.5574 C   0  0  0  0  0  0  0  0  0  0  0  0
    4.0346   -0.4762   -0.0883 N   0  0  0  0  0  0  0  0  0  0  0  0
    5.2405   -1.2383   -0.3584 C   0  0  0  0  0  0  0  0  0  0  0  0
   -3.5149   -2.0326    1.5356 H   0  0  0  0  0  0  0  0  0  0  0  0
   -2.7607   -2.0643   -0.0650 H   0  0  0  0  0  0  0  0  0  0  0  0
   -4.1466   -1.0041    0.2432 H   0  0  0  0  0  0  0  0  0  0  0  0
   -2.7371    0.2746    1.9203 H   0  0  0  0  0  0  0  0  0  0  0  0
   -1.4041   -0.8076    1.5769 H   0  0  0  0  0  0  0  0  0  0  0  0
   -2.0080    0.0981   -1.0108 H   0  0  0  0  0  0  0  0  0  0  0  0
   -2.1931    2.5637   -0.8729 H   0  0  0  0  0  0  0  0  0  0  0  0
   -2.4588    2.4803    0.8590 H   0  0  0  0  0  0  0  0  0  0  0  0
   -4.2949    1.1982   -1.2365 H   0  0  0  0  0  0  0  0  0  0  0  0
   -4.6042    1.2954    0.5123 H   0  0  0  0  0  0  0  0  0  0  0  0
   -4.5630    2.7668   -0.4597 H   0  0  0  0  0  0  0  0  0  0  0  0
   -0.1887    1.4531    0.9338 H   0  0  0  0  0  0  0  0  0  0  0  0
    0.7347   -2.8737   -1.9813 H   0  0  0  0  0  0  0  0  0  0  0  0
    2.3420    1.9419    1.0030 H   0  0  0  0  0  0  0  0  0  0  0  0
    4.8042    1.2475    0.9713 H   0  0  0  0  0  0  0  0  0  0  0  0
    6.1046   -0.7296    0.0773 H   0  0  0  0  0  0  0  0  0  0  0  0
    5.1475   -2.2329    0.0862 H   0  0  0  0  0  0  0  0  0  0  0  0
    5.3800   -1.3229   -1.4395 H   0  0  0  0  0  0  0  0  0  0  0  0
  1  2  1  0
  2  3  1  0
  3  4  1  0
  4  5  1  0
  3  6  1  0
  6  7  1  0
  7  8  2  0
  8  9  1  0
  9 10  2  0
 10 11  1  0
 11 12  2  0
 12 13  1  0
 13 14  2  0
 14 15  1  0
 15 16  1  0
 12  7  1  0
 15 11  1  0
  1 17  1  0
  1 18  1  0
  1 19  1  0
  2 20  1  0
  2 21  1  0
  3 22  1  0
  4 23  1  0
  4 24  1  0
  5 25  1  0
  5 26  1  0
  5 27  1  0
  6 28  1  0
  9 29  1  0
 13 30  1  0
 14 31  1  0
 16 32  1  0
 16 33  1  0
 16 34  1  0
M  CHG  1  13   1
M  END
>  <enum_code>  
M

>  <uuid>  
9f4af7ef-1188-4657-9b71-87f64c7ba5be

>  <sha256>  
1c5e02397d5873f6efa1b3fea650d685ce255b2bb069a261985e6139479ba70b

>  <std_smi>  
CCC(CC)Nc1ncnc2c1ncn2C

>  <enum_smi>  
CCC(CC)Nc1ncnc2c1[nH+]cn2C

$$$$
947bca66-46bf-4341-9bdb-fd4970a55c6f
     RDKit          3D

 35 36  0  0  0  0  0  0  0  0999 V2000
   -3.2552    0.9477   -2.0678 C   0  0  0  0  0  0  0  0  0  0  0  0
   -2.7748   -0.4636   -1.7521 C   0  0  0  0  0  0  0  0  0  0  0  0
   -1.9450   -0.6107   -0.4593 C   0  0  0  0  0  0  0  0  0  0  0  0
   -2.6272   -0.0598    0.8060 C   0  0  0  0  0  0  0  0  0  0  0  0
   -3.9542   -0.7352    1.1197 C   0  0  0  0  0  0  0  0  0  0  0  0
   -0.6491    0.0648   -0.6517 N   0  0  0  0  0  0  0  0  0  0  0  0
    0.4723   -0.3703    0.0236 C   0  0  0  0  0  0  0  0  0  0  0  0
    0.4615   -1.5529    0.7181 N   0  0  0  0  0  0  0  0  0  0  0  0
    1.5566   -2.0217    1.3712 C   0  0  0  0  0  0  0  0  0  0  0  0
    2.7400   -1.4107    1.4146 N   0  3  0  0  0  4  0  0  0  0  0  0
    2.7977   -0.1505    0.6826 C   0  0  0  0  0  0  0  0  0  0  0  0
    1.6853    0.3345    0.0138 C   0  0  0  0  0  0  0  0  0  0  0  0
    2.1031    1.5134   -0.5781 N   0  3  0  0  0  4  0  0  0  0  0  0
    3.3872    1.7563   -0.2936 C   0  0  0  0  0  0  0  0  0  0  0  0
    3.8320    0.7501    0.4900 N   0  0  0  0  0  0  0  0  0  0  0  0
    5.2002    0.6726    0.9937 C   0  0  0  0  0  0  0  0  0  0  0  0
   -2.4200    1.6467   -2.1676 H   0  0  0  0  0  0  0  0  0  0  0  0
   -3.9342    1.3247   -1.2979 H   0  0  0  0  0  0  0  0  0  0  0  0
   -3.8024    0.9489   -3.0164 H   0  0  0  0  0  0  0  0  0  0  0  0
   -3.6493   -1.1230   -1.6974 H   0  0  0  0  0  0  0  0  0  0  0  0
   -2.1771   -0.8210   -2.6007 H   0  0  0  0  0  0  0  0  0  0  0  0
   -1.7819   -1.6889   -0.3303 H   0  0  0  0  0  0  0  0  0  0  0  0
   -2.7775    1.0233    0.7250 H   0  0  0  0  0  0  0  0  0  0  0  0
   -1.9624   -0.2036    1.6672 H   0  0  0  0  0  0  0  0  0  0  0  0
   -4.3446   -0.3690    2.0747 H   0  0  0  0  0  0  0  0  0  0  0  0
   -3.8331   -1.8202    1.1979 H   0  0  0  0  0  0  0  0  0  0  0  0
   -4.7052   -0.5243    0.3532 H   0  0  0  0  0  0  0  0  0  0  0  0
   -0.7276    1.0516   -0.8696 H   0  0  0  0  0  0  0  0  0  0  0  0
    1.4547   -2.9696    1.8958 H   0  0  0  0  0  0  0  0  0  0  0  0
    3.5231   -1.8147    1.9188 H   0  0  0  0  0  0  0  0  0  0  0  0
    1.5258    2.1069   -1.1763 H   0  0  0  0  0  0  0  0  0  0  0  0
    3.9655    2.6099   -0.6370 H   0  0  0  0  0  0  0  0  0  0  0  0
    5.6188    1.6790    1.0769 H   0  0  0  0  0  0  0  0  0  0  0  0
    5.7971    0.0788    0.2969 H   0  0  0  0  0  0  0  0  0  0  0  0
    5.1998    0.2006    1.9797 H   0  0  0  0  0  0  0  0  0  0  0  0
  1  2  1  0
  2  3  1  0
  3  4  1  0
  4  5  1  0
  3  6  1  0
  6  7  1  0
  7  8  2  0
  8  9  1  0
  9 10  2  0
 10 11  1  0
 11 12  2  0
 12 13  1  0
 13 14  2  0
 14 15  1  0
 15 16  1  0
 12  7  1  0
 15 11  1  0
  1 17  1  0
  1 18  1  0
  1 19  1  0
  2 20  1  0
  2 21  1  0
  3 22  1  0
  4 23  1  0
  4 24  1  0
  5 25  1  0
  5 26  1  0
  5 27  1  0
  6 28  1  0
  9 29  1  0
 10 30  1  0
 13 31  1  0
 14 32  1  0
 16 33  1  0
 16 34  1  0
 16 35  1  0
M  CHG  2  10   1  13   1
M  END
>  <enum_code>  
M

>  <uuid>  
947bca66-46bf-4341-9bdb-fd4970a55c6f

>  <sha256>  
1c5e02397d5873f6efa1b3fea650d685ce255b2bb069a261985e6139479ba70b

>  <std_smi>  
CCC(CC)Nc1ncnc2c1ncn2C

>  <enum_smi>  
CCC(CC)Nc1nc[nH+]c2c1[nH+]cn2C

$$$$
497f83fa-28a3-4a8f-ab5d-c5c733991559
     RDKit          3D

 35 36  0  0  0  0  0  0  0  0999 V2000
   -3.4616   -0.0989    1.0431 C   0  0  0  0  0  0  0  0  0  0  0  0
   -2.4792   -0.6416    0.0135 C   0  0  0  0  0  0  0  0  0  0  0  0
   -1.6759    0.4576   -0.7087 C   0  0  0  0  0  0  0  0  0  0  0  0
   -2.5757    1.3793   -1.5535 C   0  0  0  0  0  0  0  0  0  0  0  0
   -1.8348    2.5446   -2.1999 C   0  0  0  0  0  0  0  0  0  0  0  0
   -0.6674   -0.1867   -1.6236 N   0  3  0  0  0  4  0  0  0  0  0  0
    0.4169   -0.8761   -0.9525 C   0  0  0  0  0  0  0  0  0  0  0  0
    0.3564   -2.2207   -1.0536 N   0  0  0  0  0  0  0  0  0  0  0  0
    1.3343   -2.9739   -0.4825 C   0  0  0  0  0  0  0  0  0  0  0  0
    2.4031   -2.5128    0.1858 N   0  0  0  0  0  0  0  0  0  0  0  0
    2.4422   -1.1493    0.2498 C   0  0  0  0  0  0  0  0  0  0  0  0
    1.5000   -0.2855   -0.2911 C   0  0  0  0  0  0  0  0  0  0  0  0
    1.9482    0.9959    0.0035 N   0  3  0  0  0  4  0  0  0  0  0  0
    3.1036    0.9225    0.6930 C   0  0  0  0  0  0  0  0  0  0  0  0
    3.4065   -0.3733    0.8466 N   0  0  0  0  0  0  0  0  0  0  0  0
    4.5896   -0.8712    1.5453 C   0  0  0  0  0  0  0  0  0  0  0  0
   -4.2842    0.4447    0.5703 H   0  0  0  0  0  0  0  0  0  0  0  0
   -3.9009   -0.9249    1.6119 H   0  0  0  0  0  0  0  0  0  0  0  0
   -2.9607    0.5696    1.7502 H   0  0  0  0  0  0  0  0  0  0  0  0
   -1.7975   -1.3175    0.5427 H   0  0  0  0  0  0  0  0  0  0  0  0
   -3.0261   -1.2525   -0.7153 H   0  0  0  0  0  0  0  0  0  0  0  0
   -1.1161    1.0626    0.0153 H   0  0  0  0  0  0  0  0  0  0  0  0
   -3.0876    0.8006   -2.3320 H   0  0  0  0  0  0  0  0  0  0  0  0
   -3.3557    1.8114   -0.9174 H   0  0  0  0  0  0  0  0  0  0  0  0
   -1.1535    2.2109   -2.9871 H   0  0  0  0  0  0  0  0  0  0  0  0
   -2.5521    3.2314   -2.6612 H   0  0  0  0  0  0  0  0  0  0  0  0
   -1.2603    3.1061   -1.4566 H   0  0  0  0  0  0  0  0  0  0  0  0
   -0.2774    0.4451   -2.3307 H   0  0  0  0  0  0  0  0  0  0  0  0
   -1.1366   -0.9345   -2.1614 H   0  0  0  0  0  0  0  0  0  0  0  0
    1.2419   -4.0553   -0.5784 H   0  0  0  0  0  0  0  0  0  0  0  0
    1.5191    1.8875   -0.2379 H   0  0  0  0  0  0  0  0  0  0  0  0
    3.6822    1.7665    1.0568 H   0  0  0  0  0  0  0  0  0  0  0  0
    4.5235   -0.5787    2.5966 H   0  0  0  0  0  0  0  0  0  0  0  0
    5.4789   -0.4238    1.0931 H   0  0  0  0  0  0  0  0  0  0  0  0
    4.6569   -1.9593    1.4738 H   0  0  0  0  0  0  0  0  0  0  0  0
  1  2  1  0
  2  3  1  0
  3  4  1  0
  4  5  1  0
  3  6  1  0
  6  7  1  0
  7  8  2  0
  8  9  1  0
  9 10  2  0
 10 11  1  0
 11 12  2  0
 12 13  1  0
 13 14  2  0
 14 15  1  0
 15 16  1  0
 12  7  1  0
 15 11  1  0
  1 17  1  0
  1 18  1  0
  1 19  1  0
  2 20  1  0
  2 21  1  0
  3 22  1  0
  4 23  1  0
  4 24  1  0
  5 25  1  0
  5 26  1  0
  5 27  1  0
  6 28  1  0
  6 29  1  0
  9 30  1  0
 13 31  1  0
 14 32  1  0
 16 33  1  0
 16 34  1  0
 16 35  1  0
M  CHG  2   6   1  13   1
M  END
>  <enum_code>  
M

>  <uuid>  
497f83fa-28a3-4a8f-ab5d-c5c733991559

>  <sha256>  
1c5e02397d5873f6efa1b3fea650d685ce255b2bb069a261985e6139479ba70b

>  <std_smi>  
CCC(CC)Nc1ncnc2c1ncn2C

>  <enum_smi>  
CCC(CC)[NH2+]c1ncnc2c1[nH+]cn2C

$$$$
8ea72feb-54af-4da6-97a8-25fe125c0baf
     RDKit          3D

 35 36  0  0  0  0  0  0  0  0999 V2000
    2.1415    2.6211    0.5154 C   0  0  0  0  0  0  0  0  0  0  0  0
    2.5626    1.3188   -0.1561 C   0  0  0  0  0  0  0  0  0  0  0  0
    2.1845    0.0737    0.6633 C   0  0  0  0  0  0  0  0  0  0  0  0
    2.6840   -1.2475    0.0527 C   0  0  0  0  0  0  0  0  0  0  0  0
    4.2000   -1.3886    0.0813 C   0  0  0  0  0  0  0  0  0  0  0  0
    0.7406    0.0033    0.9060 N   0  0  0  0  0  0  0  0  0  0  0  0
   -0.3344   -0.1318    0.0787 C   0  0  0  0  0  0  0  0  0  0  0  0
   -0.2385   -0.2358   -1.2521 N   0  3  0  0  0  4  0  0  0  0  0  0
   -1.2548   -0.3688   -2.1126 C   0  0  0  0  0  0  0  0  0  0  0  0
   -2.5212   -0.4106   -1.6923 N   0  3  0  0  0  4  0  0  0  0  0  0
   -2.7131   -0.3112   -0.3580 C   0  0  0  0  0  0  0  0  0  0  0  0
   -1.6675   -0.1739    0.5355 C   0  0  0  0  0  0  0  0  0  0  0  0
   -2.1612   -0.0968    1.8095 N   0  0  0  0  0  0  0  0  0  0  0  0
   -3.4711   -0.1846    1.7020 C   0  0  0  0  0  0  0  0  0  0  0  0
   -3.8574   -0.3173    0.3942 N   0  0  0  0  0  0  0  0  0  0  0  0
   -5.2221   -0.4375   -0.0603 C   0  0  0  0  0  0  0  0  0  0  0  0
    1.0531    2.6999    0.5942 H   0  0  0  0  0  0  0  0  0  0  0  0
    2.5682    2.6998    1.5203 H   0  0  0  0  0  0  0  0  0  0  0  0
    2.4952    3.4761   -0.0699 H   0  0  0  0  0  0  0  0  0  0  0  0
    2.1254    1.2807   -1.1591 H   0  0  0  0  0  0  0  0  0  0  0  0
    3.6492    1.3524   -0.2926 H   0  0  0  0  0  0  0  0  0  0  0  0
    2.6571    0.1744    1.6496 H   0  0  0  0  0  0  0  0  0  0  0  0
    2.3424   -1.3561   -0.9821 H   0  0  0  0  0  0  0  0  0  0  0  0
    2.2530   -2.0886    0.6110 H   0  0  0  0  0  0  0  0  0  0  0  0
    4.4903   -2.3818   -0.2766 H   0  0  0  0  0  0  0  0  0  0  0  0
    4.5877   -1.2698    1.0979 H   0  0  0  0  0  0  0  0  0  0  0  0
    4.6850   -0.6509   -0.5642 H   0  0  0  0  0  0  0  0  0  0  0  0
    0.4912    0.0741    1.9018 H   0  0  0  0  0  0  0  0  0  0  0  0
    0.7088   -0.2084   -1.6254 H   0  0  0  0  0  0  0  0  0  0  0  0
   -1.0433   -0.4439   -3.1763 H   0  0  0  0  0  0  0  0  0  0  0  0
   -3.3043   -0.5120   -2.3435 H   0  0  0  0  0  0  0  0  0  0  0  0
   -4.1731   -0.1574    2.5317 H   0  0  0  0  0  0  0  0  0  0  0  0
   -5.4361    0.4026   -0.7256 H   0  0  0  0  0  0  0  0  0  0  0  0
   -5.3225   -1.3852   -0.5952 H   0  0  0  0  0  0  0  0  0  0  0  0
   -5.8994   -0.4183    0.7970 H   0  0  0  0  0  0  0  0  0  0  0  0
  1  2  1  0
  2  3  1  0
  3  4  1  0
  4  5  1  0
  3  6  1  0
  6  7  1  0
  7  8  2  0
  8  9  1  0
  9 10  2  0
 10 11  1  0
 11 12  2  0
 12 13  1  0
 13 14  2  0
 14 15  1  0
 15 16  1  0
 12  7  1  0
 15 11  1  0
  1 17  1  0
  1 18  1  0
  1 19  1  0
  2 20  1  0
  2 21  1  0
  3 22  1  0
  4 23  1  0
  4 24  1  0
  5 25  1  0
  5 26  1  0
  5 27  1  0
  6 28  1  0
  8 29  1  0
  9 30  1  0
 10 31  1  0
 14 32  1  0
 16 33  1  0
 16 34  1  0
 16 35  1  0
M  CHG  2   8   1  10   1
M  END
>  <enum_code>  
M

>  <uuid>  
8ea72feb-54af-4da6-97a8-25fe125c0baf

>  <sha256>  
1c5e02397d5873f6efa1b3fea650d685ce255b2bb069a261985e6139479ba70b

>  <std_smi>  
CCC(CC)Nc1ncnc2c1ncn2C

>  <enum_smi>  
CCC(CC)Nc1[nH+]c[nH+]c2c1ncn2C

$$$$
325805a0-f722-4d59-8995-38210e88ad91
     RDKit          3D

 34 35  0  0  0  0  0  0  0  0999 V2000
   -3.7043    1.6667    1.1017 C   0  0  0  0  0  0  0  0  0  0  0  0
   -2.4407    0.8245    1.2023 C   0  0  0  0  0  0  0  0  0  0  0  0
   -1.9549    0.2847   -0.1558 C   0  0  0  0  0  0  0  0  0  0  0  0
   -2.9747   -0.6222   -0.8777 C   0  0  0  0  0  0  0  0  0  0  0  0
   -3.4825   -1.8062   -0.0632 C   0  0  0  0  0  0  0  0  0  0  0  0
   -0.7072   -0.4546    0.0387 N   0  0  0  0  0  0  0  0  0  0  0  0
    0.5125    0.1884   -0.0510 C   0  0  0  0  0  0  0  0  0  0  0  0
    0.6126    1.5397    0.1083 N   0  0  0  0  0  0  0  0  0  0  0  0
    1.8223    2.1291    0.0588 C   0  0  0  0  0  0  0  0  0  0  0  0
    2.9810    1.5049   -0.1473 N   0  3  0  0  0  4  0  0  0  0  0  0
    2.8994    0.1659   -0.3210 C   0  0  0  0  0  0  0  0  0  0  0  0
    1.7060   -0.5332   -0.2844 C   0  0  0  0  0  0  0  0  0  0  0  0
    1.9428   -1.8713   -0.4985 N   0  0  0  0  0  0  0  0  0  0  0  0
    3.2453   -1.9825   -0.6532 C   0  0  0  0  0  0  0  0  0  0  0  0
    3.8707   -0.7680   -0.5527 N   0  0  0  0  0  0  0  0  0  0  0  0
    5.2899   -0.5492   -0.6728 C   0  0  0  0  0  0  0  0  0  0  0  0
   -4.5631    1.0694    0.7826 H   0  0  0  0  0  0  0  0  0  0  0  0
   -3.5712    2.4900    0.3929 H   0  0  0  0  0  0  0  0  0  0  0  0
   -3.9463    2.0976    2.0786 H   0  0  0  0  0  0  0  0  0  0  0  0
   -2.6039    0.0026    1.9097 H   0  0  0  0  0  0  0  0  0  0  0  0
   -1.6558    1.4469    1.6497 H   0  0  0  0  0  0  0  0  0  0  0  0
   -1.7758    1.1344   -0.8288 H   0  0  0  0  0  0  0  0  0  0  0  0
   -2.5185   -1.0079   -1.7988 H   0  0  0  0  0  0  0  0  0  0  0  0
   -3.8360   -0.0221   -1.1944 H   0  0  0  0  0  0  0  0  0  0  0  0
   -4.1443   -2.4238   -0.6793 H   0  0  0  0  0  0  0  0  0  0  0  0
   -4.0577   -1.4783    0.8073 H   0  0  0  0  0  0  0  0  0  0  0  0
   -2.6615   -2.4407    0.2831 H   0  0  0  0  0  0  0  0  0  0  0  0
   -0.6810   -1.4190   -0.2890 H   0  0  0  0  0  0  0  0  0  0  0  0
    1.8542    3.2055    0.1999 H   0  0  0  0  0  0  0  0  0  0  0  0
    3.8574    2.0165   -0.1694 H   0  0  0  0  0  0  0  0  0  0  0  0
    3.7758   -2.9113   -0.8375 H   0  0  0  0  0  0  0  0  0  0  0  0
    5.7964   -1.5006   -0.8533 H   0  0  0  0  0  0  0  0  0  0  0  0
    5.4634    0.1303   -1.5110 H   0  0  0  0  0  0  0  0  0  0  0  0
    5.6499   -0.1064    0.2592 H   0  0  0  0  0  0  0  0  0  0  0  0
  1  2  1  0
  2  3  1  0
  3  4  1  0
  4  5  1  0
  3  6  1  0
  6  7  1  0
  7  8  2  0
  8  9  1  0
  9 10  2  0
 10 11  1  0
 11 12  2  0
 12 13  1  0
 13 14  2  0
 14 15  1  0
 15 16  1  0
 12  7  1  0
 15 11  1  0
  1 17  1  0
  1 18  1  0
  1 19  1  0
  2 20  1  0
  2 21  1  0
  3 22  1  0
  4 23  1  0
  4 24  1  0
  5 25  1  0
  5 26  1  0
  5 27  1  0
  6 28  1  0
  9 29  1  0
 10 30  1  0
 14 31  1  0
 16 32  1  0
 16 33  1  0
 16 34  1  0
M  CHG  1  10   1
M  END
>  <enum_code>  
M

>  <uuid>  
325805a0-f722-4d59-8995-38210e88ad91

>  <sha256>  
1c5e02397d5873f6efa1b3fea650d685ce255b2bb069a261985e6139479ba70b

>  <std_smi>  
CCC(CC)Nc1ncnc2c1ncn2C

>  <enum_smi>  
CCC(CC)Nc1nc[nH+]c2c1ncn2C

$$$$
9bd8f38d-9f6c-49da-91a8-00260515f5ab
     RDKit          3D

 34 35  0  0  0  0  0  0  0  0999 V2000
   -2.2902   -1.4460    0.2632 C   0  0  0  0  0  0  0  0  0  0  0  0
   -1.6894   -0.4418    1.2335 C   0  0  0  0  0  0  0  0  0  0  0  0
   -1.5675    1.0147    0.7449 C   0  0  0  0  0  0  0  0  0  0  0  0
   -2.9121    1.6792    0.3851 C   0  0  0  0  0  0  0  0  0  0  0  0
   -3.4340    1.4757   -1.0328 C   0  0  0  0  0  0  0  0  0  0  0  0
   -0.6213    1.1483   -0.3992 N   0  3  0  0  0  4  0  0  0  0  0  0
    0.7572    0.9216   -0.0341 C   0  0  0  0  0  0  0  0  0  0  0  0
    1.3990    1.8190    0.7197 N   0  0  0  0  0  0  0  0  0  0  0  0
    2.7003    1.5584    0.9892 C   0  0  0  0  0  0  0  0  0  0  0  0
    3.4371    0.5076    0.5746 N   0  0  0  0  0  0  0  0  0  0  0  0
    2.7304   -0.3296   -0.1989 C   0  0  0  0  0  0  0  0  0  0  0  0
    1.4031   -0.1944   -0.5515 C   0  0  0  0  0  0  0  0  0  0  0  0
    0.9851   -1.2137   -1.3697 N   0  0  0  0  0  0  0  0  0  0  0  0
    2.0551   -1.9770   -1.5065 C   0  0  0  0  0  0  0  0  0  0  0  0
    3.1321   -1.4815   -0.8151 N   0  0  0  0  0  0  0  0  0  0  0  0
    4.4507   -2.0585   -0.7503 C   0  0  0  0  0  0  0  0  0  0  0  0
   -1.7949   -1.4299   -0.7104 H   0  0  0  0  0  0  0  0  0  0  0  0
   -3.3591   -1.2653    0.1209 H   0  0  0  0  0  0  0  0  0  0  0  0
   -2.1898   -2.4580    0.6698 H   0  0  0  0  0  0  0  0  0  0  0  0
   -2.2992   -0.4490    2.1463 H   0  0  0  0  0  0  0  0  0  0  0  0
   -0.7027   -0.8078    1.5420 H   0  0  0  0  0  0  0  0  0  0  0  0
   -1.1457    1.6007    1.5734 H   0  0  0  0  0  0  0  0  0  0  0  0
   -2.8038    2.7620    0.5342 H   0  0  0  0  0  0  0  0  0  0  0  0
   -3.6784    1.3560    1.1002 H   0  0  0  0  0  0  0  0  0  0  0  0
   -3.5443    0.4219   -1.2921 H   0  0  0  0  0  0  0  0  0  0  0  0
   -2.7765    1.9436   -1.7721 H   0  0  0  0  0  0  0  0  0  0  0  0
   -4.4182    1.9456   -1.1335 H   0  0  0  0  0  0  0  0  0  0  0  0
   -0.8379    0.4995   -1.1694 H   0  0  0  0  0  0  0  0  0  0  0  0
   -0.6325    2.1019   -0.7749 H   0  0  0  0  0  0  0  0  0  0  0  0
    3.2177    2.2841    1.6142 H   0  0  0  0  0  0  0  0  0  0  0  0
    2.1083   -2.8905   -2.0891 H   0  0  0  0  0  0  0  0  0  0  0  0
    5.1643   -1.3392   -1.1598 H   0  0  0  0  0  0  0  0  0  0  0  0
    4.4749   -2.9806   -1.3363 H   0  0  0  0  0  0  0  0  0  0  0  0
    4.6823   -2.2771    0.2952 H   0  0  0  0  0  0  0  0  0  0  0  0
  1  2  1  0
  2  3  1  0
  3  4  1  0
  4  5  1  0
  3  6  1  0
  6  7  1  0
  7  8  2  0
  8  9  1  0
  9 10  2  0
 10 11  1  0
 11 12  2  0
 12 13  1  0
 13 14  2  0
 14 15  1  0
 15 16  1  0
 12  7  1  0
 15 11  1  0
  1 17  1  0
  1 18  1  0
  1 19  1  0
  2 20  1  0
  2 21  1  0
  3 22  1  0
  4 23  1  0
  4 24  1  0
  5 25  1  0
  5 26  1  0
  5 27  1  0
  6 28  1  0
  6 29  1  0
  9 30  1  0
 14 31  1  0
 16 32  1  0
 16 33  1  0
 16 34  1  0
M  CHG  1   6   1
M  END
>  <enum_code>  
M

>  <uuid>  
9bd8f38d-9f6c-49da-91a8-00260515f5ab

>  <sha256>  
1c5e02397d5873f6efa1b3fea650d685ce255b2bb069a261985e6139479ba70b

>  <std_smi>  
CCC(CC)Nc1ncnc2c1ncn2C

>  <enum_smi>  
CCC(CC)[NH2+]c1ncnc2c1ncn2C

$$$$
e1da5efe-8ef9-4fc9-97c5-8bb654210c5a
     RDKit          3D

 35 36  0  0  0  0  0  0  0  0999 V2000
   -1.7704   -1.7982   -1.3118 C   0  0  0  0  0  0  0  0  0  0  0  0
   -1.8481   -1.3515    0.1425 C   0  0  0  0  0  0  0  0  0  0  0  0
   -2.0022    0.1642    0.3730 C   0  0  0  0  0  0  0  0  0  0  0  0
   -3.2418    0.7402   -0.3324 C   0  0  0  0  0  0  0  0  0  0  0  0
   -3.5983    2.1508    0.1219 C   0  0  0  0  0  0  0  0  0  0  0  0
   -0.7854    0.9158   -0.0902 N   0  3  0  0  0  4  0  0  0  0  0  0
    0.4501    0.6334    0.6384 C   0  0  0  0  0  0  0  0  0  0  0  0
    0.7221    0.8302    1.9337 N   0  3  0  0  0  4  0  0  0  0  0  0
    1.9166    0.5403    2.4753 C   0  0  0  0  0  0  0  0  0  0  0  0
    2.9746    0.0400    1.8174 N   0  0  0  0  0  0  0  0  0  0  0  0
    2.7128   -0.1387    0.5167 C   0  0  0  0  0  0  0  0  0  0  0  0
    1.5149    0.1329   -0.1130 C   0  0  0  0  0  0  0  0  0  0  0  0
    1.5767   -0.1492   -1.4503 N   0  0  0  0  0  0  0  0  0  0  0  0
    2.8053   -0.5990   -1.6405 C   0  0  0  0  0  0  0  0  0  0  0  0
    3.5301   -0.6112   -0.4751 N   0  0  0  0  0  0  0  0  0  0  0  0
    4.9004   -1.0384   -0.3240 C   0  0  0  0  0  0  0  0  0  0  0  0
   -1.6519   -2.8859   -1.3585 H   0  0  0  0  0  0  0  0  0  0  0  0
   -0.9205   -1.3523   -1.8336 H   0  0  0  0  0  0  0  0  0  0  0  0
   -2.6838   -1.5455   -1.8581 H   0  0  0  0  0  0  0  0  0  0  0  0
   -0.9644   -1.7243    0.6737 H   0  0  0  0  0  0  0  0  0  0  0  0
   -2.7057   -1.8572    0.6048 H   0  0  0  0  0  0  0  0  0  0  0  0
   -2.0878    0.3509    1.4510 H   0  0  0  0  0  0  0  0  0  0  0  0
   -4.1034    0.0936   -0.1250 H   0  0  0  0  0  0  0  0  0  0  0  0
   -3.1015    0.7462   -1.4199 H   0  0  0  0  0  0  0  0  0  0  0  0
   -3.7286    2.1920    1.2079 H   0  0  0  0  0  0  0  0  0  0  0  0
   -2.8318    2.8768   -0.1626 H   0  0  0  0  0  0  0  0  0  0  0  0
   -4.5386    2.4658   -0.3423 H   0  0  0  0  0  0  0  0  0  0  0  0
   -0.5914    0.6525   -1.0808 H   0  0  0  0  0  0  0  0  0  0  0  0
   -0.9323    1.9333   -0.1445 H   0  0  0  0  0  0  0  0  0  0  0  0
    0.0190    1.2152    2.5610 H   0  0  0  0  0  0  0  0  0  0  0  0
    2.0425    0.7294    3.5406 H   0  0  0  0  0  0  0  0  0  0  0  0
    3.2217   -0.9259   -2.5895 H   0  0  0  0  0  0  0  0  0  0  0  0
    4.9266   -1.8664    0.3887 H   0  0  0  0  0  0  0  0  0  0  0  0
    5.4860   -0.1931    0.0458 H   0  0  0  0  0  0  0  0  0  0  0  0
    5.2887   -1.3666   -1.2913 H   0  0  0  0  0  0  0  0  0  0  0  0
  1  2  1  0
  2  3  1  0
  3  4  1  0
  4  5  1  0
  3  6  1  0
  6  7  1  0
  7  8  2  0
  8  9  1  0
  9 10  2  0
 10 11  1  0
 11 12  2  0
 12 13  1  0
 13 14  2  0
 14 15  1  0
 15 16  1  0
 12  7  1  0
 15 11  1  0
  1 17  1  0
  1 18  1  0
  1 19  1  0
  2 20  1  0
  2 21  1  0
  3 22  1  0
  4 23  1  0
  4 24  1  0
  5 25  1  0
  5 26  1  0
  5 27  1  0
  6 28  1  0
  6 29  1  0
  8 30  1  0
  9 31  1  0
 14 32  1  0
 16 33  1  0
 16 34  1  0
 16 35  1  0
M  CHG  2   6   1   8   1
M  END
>  <enum_code>  
M

>  <uuid>  
e1da5efe-8ef9-4fc9-97c5-8bb654210c5a

>  <sha256>  
1c5e02397d5873f6efa1b3fea650d685ce255b2bb069a261985e6139479ba70b

>  <std_smi>  
CCC(CC)Nc1ncnc2c1ncn2C

>  <enum_smi>  
CCC(CC)[NH2+]c1[nH+]cnc2c1ncn2C

$$$$
c22cdda9-40ef-47d6-bc8a-4e0fc1148f62
     RDKit          3D

 34 35  0  0  0  0  0  0  0  0999 V2000
   -3.0391    2.0389   -0.2336 C   0  0  0  0  0  0  0  0  0  0  0  0
   -1.8498    1.3389    0.4087 C   0  0  0  0  0  0  0  0  0  0  0  0
   -1.8714   -0.1950    0.2424 C   0  0  0  0  0  0  0  0  0  0  0  0
   -3.0417   -0.8405    1.0094 C   0  0  0  0  0  0  0  0  0  0  0  0
   -3.1373   -2.3449    0.7793 C   0  0  0  0  0  0  0  0  0  0  0  0
   -0.6119   -0.7666    0.7619 N   0  0  0  0  0  0  0  0  0  0  0  0
    0.5056   -0.6688   -0.0647 C   0  0  0  0  0  0  0  0  0  0  0  0
    0.5498   -1.3193   -1.2293 N   0  3  0  0  0  4  0  0  0  0  0  0
    1.5961   -1.3090   -2.0570 C   0  0  0  0  0  0  0  0  0  0  0  0
    2.7569   -0.6617   -1.8555 N   0  0  0  0  0  0  0  0  0  0  0  0
    2.7432   -0.0283   -0.6717 C   0  0  0  0  0  0  0  0  0  0  0  0
    1.6997    0.0028    0.2412 C   0  0  0  0  0  0  0  0  0  0  0  0
    2.0440    0.7462    1.3447 N   0  0  0  0  0  0  0  0  0  0  0  0
    3.2744    1.1588    1.1124 C   0  0  0  0  0  0  0  0  0  0  0  0
    3.7372    0.7158   -0.0967 N   0  0  0  0  0  0  0  0  0  0  0  0
    5.0360    0.9785   -0.6624 C   0  0  0  0  0  0  0  0  0  0  0  0
   -3.1378    1.7595   -1.2872 H   0  0  0  0  0  0  0  0  0  0  0  0
   -3.9747    1.8000    0.2795 H   0  0  0  0  0  0  0  0  0  0  0  0
   -2.9058    3.1245   -0.1830 H   0  0  0  0  0  0  0  0  0  0  0  0
   -1.8052    1.6032    1.4727 H   0  0  0  0  0  0  0  0  0  0  0  0
   -0.9384    1.7455   -0.0467 H   0  0  0  0  0  0  0  0  0  0  0  0
   -1.9832   -0.4396   -0.8222 H   0  0  0  0  0  0  0  0  0  0  0  0
   -3.9908   -0.3961    0.6920 H   0  0  0  0  0  0  0  0  0  0  0  0
   -2.9407   -0.6506    2.0852 H   0  0  0  0  0  0  0  0  0  0  0  0
   -3.2375   -2.5721   -0.2868 H   0  0  0  0  0  0  0  0  0  0  0  0
   -4.0144   -2.7484    1.2954 H   0  0  0  0  0  0  0  0  0  0  0  0
   -2.2558   -2.8677    1.1626 H   0  0  0  0  0  0  0  0  0  0  0  0
   -0.3784   -0.3351    1.6677 H   0  0  0  0  0  0  0  0  0  0  0  0
   -0.2616   -1.8832   -1.4588 H   0  0  0  0  0  0  0  0  0  0  0  0
    1.5031   -1.8857   -2.9732 H   0  0  0  0  0  0  0  0  0  0  0  0
    3.8682    1.7738    1.7798 H   0  0  0  0  0  0  0  0  0  0  0  0
    5.6145    1.6024    0.0236 H   0  0  0  0  0  0  0  0  0  0  0  0
    4.9006    1.4997   -1.6134 H   0  0  0  0  0  0  0  0  0  0  0  0
    5.5462    0.0243   -0.8164 H   0  0  0  0  0  0  0  0  0  0  0  0
  1  2  1  0
  2  3  1  0
  3  4  1  0
  4  5  1  0
  3  6  1  0
  6  7  1  0
  7  8  2  0
  8  9  1  0
  9 10  2  0
 10 11  1  0
 11 12  2  0
 12 13  1  0
 13 14  2  0
 14 15  1  0
 15 16  1  0
 12  7  1  0
 15 11  1  0
  1 17  1  0
  1 18  1  0
  1 19  1  0
  2 20  1  0
  2 21  1  0
  3 22  1  0
  4 23  1  0
  4 24  1  0
  5 25  1  0
  5 26  1  0
  5 27  1  0
  6 28  1  0
  8 29  1  0
  9 30  1  0
 14 31  1  0
 16 32  1  0
 16 33  1  0
 16 34  1  0
M  CHG  1   8   1
M  END
>  <enum_code>  
M

>  <uuid>  
c22cdda9-40ef-47d6-bc8a-4e0fc1148f62

>  <sha256>  
1c5e02397d5873f6efa1b3fea650d685ce255b2bb069a261985e6139479ba70b

>  <std_smi>  
CCC(CC)Nc1ncnc2c1ncn2C

>  <enum_smi>  
CCC(CC)Nc1[nH+]cnc2c1ncn2C

$$$$
f19d88ba-908e-447f-9168-40c86eb61157
     RDKit          3D

 32 33  0  0  0  0  0  0  0  0999 V2000
    6.2435    2.1492   -1.1101 Cl  0  0  0  0  0  0  0  0  0  0  0  0
    5.0548    1.0543   -0.5497 C   0  0  0  0  0  0  0  0  0  0  0  0
    5.3358    0.1082    0.4103 C   0  0  0  0  0  0  0  0  0  0  0  0
    4.3059   -0.7432    0.8050 C   0  0  0  0  0  0  0  0  0  0  0  0
    3.0456   -0.6217    0.2270 C   0  0  0  0  0  0  0  0  0  0  0  0
    2.0275   -1.4835    0.6754 N   0  0  0  0  0  0  0  0  0  0  0  0
    0.7248   -1.3278    0.0158 C   0  0  0  0  0  0  0  0  0  0  0  0
   -0.0825   -0.1712    0.6289 C   0  0  0  0  0  0  0  0  0  0  0  0
   -1.5087    0.0232    0.1383 C   0  0  0  0  0  0  0  0  0  0  0  0
   -2.0958   -0.6904   -0.8419 C   0  0  0  0  0  0  0  0  0  0  0  0
   -3.5195   -0.4984   -1.2838 C   0  0  0  0  0  0  0  0  0  0  0  0
   -4.3458    0.3472   -0.3170 C   0  0  0  0  0  0  0  0  0  0  0  0
   -3.5529    1.5567    0.1588 C   0  0  0  0  0  0  0  0  0  0  0  0
   -2.2594    1.1284    0.8552 C   0  0  0  0  0  0  0  0  0  0  0  0
    2.8272    0.3342   -0.7015 N   0  0  0  0  0  0  0  0  0  0  0  0
    3.8379    1.1785   -1.1045 N   0  0  0  0  0  0  0  0  0  0  0  0
    6.3221    0.0299    0.8512 H   0  0  0  0  0  0  0  0  0  0  0  0
    4.4856   -1.4890    1.5728 H   0  0  0  0  0  0  0  0  0  0  0  0
    2.3610   -2.4419    0.6120 H   0  0  0  0  0  0  0  0  0  0  0  0
    0.1732   -2.2622    0.1788 H   0  0  0  0  0  0  0  0  0  0  0  0
    0.8347   -1.2196   -1.0705 H   0  0  0  0  0  0  0  0  0  0  0  0
    0.4572    0.7706    0.4713 H   0  0  0  0  0  0  0  0  0  0  0  0
   -0.1207   -0.3235    1.7163 H   0  0  0  0  0  0  0  0  0  0  0  0
   -1.5515   -1.4619   -1.3785 H   0  0  0  0  0  0  0  0  0  0  0  0
   -3.5113   -0.0276   -2.2742 H   0  0  0  0  0  0  0  0  0  0  0  0
   -3.9984   -1.4776   -1.3988 H   0  0  0  0  0  0  0  0  0  0  0  0
   -5.2718    0.6698   -0.8061 H   0  0  0  0  0  0  0  0  0  0  0  0
   -4.6377   -0.2611    0.5486 H   0  0  0  0  0  0  0  0  0  0  0  0
   -4.1589    2.1589    0.8451 H   0  0  0  0  0  0  0  0  0  0  0  0
   -3.3135    2.1970   -0.6999 H   0  0  0  0  0  0  0  0  0  0  0  0
   -1.6164    2.0112    0.9553 H   0  0  0  0  0  0  0  0  0  0  0  0
   -2.4919    0.7833    1.8705 H   0  0  0  0  0  0  0  0  0  0  0  0
  1  2  1  0
  2  3  2  0
  3  4  1  0
  4  5  2  0
  5  6  1  0
  6  7  1  0
  7  8  1  0
  8  9  1  0
  9 10  2  0
 10 11  1  0
 11 12  1  0
 12 13  1  0
 13 14  1  0
  5 15  1  0
 15 16  2  0
 16  2  1  0
 14  9  1  0
  3 17  1  0
  4 18  1  0
  6 19  1  0
  7 20  1  0
  7 21  1  0
  8 22  1  0
  8 23  1  0
 10 24  1  0
 11 25  1  0
 11 26  1  0
 12 27  1  0
 12 28  1  0
 13 29  1  0
 13 30  1  0
 14 31  1  0
 14 32  1  0
M  END
>  <enum_code>  
B

>  <uuid>  
f19d88ba-908e-447f-9168-40c86eb61157

>  <sha256>  
6149034aeb29bd8fa0ec2e92d34f1bde0841ca524aca24497fa6898cc79b03a9

>  <std_smi>  
Clc1ccc(NCCC2=CCCCC2)nn1

>  <enum_smi>  
Clc1ccc(NCCC2=CCCCC2)nn1

$$$$
f32c4739-fd8a-4756-b06d-401189e33689
     RDKit          3D

 32 33  0  0  0  0  0  0  0  0999 V2000
   -7.2679    1.3624   -0.9792 Cl  0  0  0  0  0  0  0  0  0  0  0  0
   -5.6971    0.8146   -0.5178 C   0  0  0  0  0  0  0  0  0  0  0  0
   -4.5044    1.3797   -1.2040 C   0  0  0  0  0  0  0  0  0  0  0  0
   -3.2868    0.9547   -0.8461 C   0  0  0  0  0  0  0  0  0  0  0  0
   -3.2152   -0.0730    0.2337 C   0  0  0  0  0  0  0  0  0  0  0  0
   -2.1277   -0.5921    0.6999 N   0  0  0  0  0  0  0  0  0  0  0  0
   -0.8303   -0.1806    0.1654 C   0  0  0  0  0  0  0  0  0  0  0  0
    0.2664   -0.9786    0.8803 C   0  0  0  0  0  0  0  0  0  0  0  0
    1.6558   -0.6363    0.3882 C   0  0  0  0  0  0  0  0  0  0  0  0
    2.3309   -1.4536   -0.4415 C   0  0  0  0  0  0  0  0  0  0  0  0
    3.7325   -1.1949   -0.9124 C   0  0  0  0  0  0  0  0  0  0  0  0
    4.4449   -0.1054   -0.1112 C   0  0  0  0  0  0  0  0  0  0  0  0
    3.5205    1.0784    0.1470 C   0  0  0  0  0  0  0  0  0  0  0  0
    2.2634    0.6464    0.9072 C   0  0  0  0  0  0  0  0  0  0  0  0
   -4.4079   -0.5007    0.7760 N   0  0  0  0  0  0  0  0  0  0  0  0
   -5.6598   -0.0791    0.4239 N   0  0  0  0  0  0  0  0  0  0  0  0
   -4.6601    2.1210   -1.9754 H   0  0  0  0  0  0  0  0  0  0  0  0
   -2.3865    1.3290   -1.3089 H   0  0  0  0  0  0  0  0  0  0  0  0
   -0.7777   -0.3828   -0.9114 H   0  0  0  0  0  0  0  0  0  0  0  0
   -0.6776    0.8917    0.3329 H   0  0  0  0  0  0  0  0  0  0  0  0
    0.2131   -0.8051    1.9628 H   0  0  0  0  0  0  0  0  0  0  0  0
    0.0713   -2.0511    0.7464 H   0  0  0  0  0  0  0  0  0  0  0  0
    1.8647   -2.3681   -0.8025 H   0  0  0  0  0  0  0  0  0  0  0  0
    4.3143   -2.1215   -0.8489 H   0  0  0  0  0  0  0  0  0  0  0  0
    3.6939   -0.9120   -1.9711 H   0  0  0  0  0  0  0  0  0  0  0  0
    4.7849   -0.5167    0.8478 H   0  0  0  0  0  0  0  0  0  0  0  0
    5.3398    0.2245   -0.6507 H   0  0  0  0  0  0  0  0  0  0  0  0
    4.0483    1.8509    0.7176 H   0  0  0  0  0  0  0  0  0  0  0  0
    3.2326    1.5309   -0.8107 H   0  0  0  0  0  0  0  0  0  0  0  0
    2.5106    0.5063    1.9670 H   0  0  0  0  0  0  0  0  0  0  0  0
    1.5347    1.4627    0.8538 H   0  0  0  0  0  0  0  0  0  0  0  0
   -4.3238   -1.2020    1.5084 H   0  0  0  0  0  0  0  0  0  0  0  0
  1  2  1  0
  2  3  1  0
  3  4  2  0
  4  5  1  0
  5  6  2  3
  6  7  1  0
  7  8  1  0
  8  9  1  0
  9 10  2  0
 10 11  1  0
 11 12  1  0
 12 13  1  0
 13 14  1  0
  5 15  1  0
 15 16  1  0
 16  2  2  0
 14  9  1  0
  3 17  1  0
  4 18  1  0
  7 19  1  0
  7 20  1  0
  8 21  1  0
  8 22  1  0
 10 23  1  0
 11 24  1  0
 11 25  1  0
 12 26  1  0
 12 27  1  0
 13 28  1  0
 13 29  1  0
 14 30  1  0
 14 31  1  0
 15 32  1  0
M  END
>  <enum_code>  
T

>  <uuid>  
f32c4739-fd8a-4756-b06d-401189e33689

>  <sha256>  
6149034aeb29bd8fa0ec2e92d34f1bde0841ca524aca24497fa6898cc79b03a9

>  <std_smi>  
Clc1ccc(NCCC2=CCCCC2)nn1

>  <enum_smi>  
Clc1ccc(=NCCC2=CCCCC2)[nH]n1

$$$$
4a202479-ce3a-42c9-954f-3ba43be7a1b7
     RDKit          3D

 33 34  0  0  0  0  0  0  0  0999 V2000
    6.5811    1.1179    1.3691 Cl  0  0  0  0  0  0  0  0  0  0  0  0
    5.1750    0.4271    0.6787 C   0  0  0  0  0  0  0  0  0  0  0  0
    4.2033    1.2171    0.0884 C   0  0  0  0  0  0  0  0  0  0  0  0
    3.0694    0.6228   -0.4700 C   0  0  0  0  0  0  0  0  0  0  0  0
    2.8869   -0.7550   -0.4354 C   0  0  0  0  0  0  0  0  0  0  0  0
    1.7993   -1.3772   -1.0135 N   0  0  0  0  0  0  0  0  0  0  0  0
    0.4588   -0.7868   -0.9929 C   0  0  0  0  0  0  0  0  0  0  0  0
   -0.1568   -0.8273    0.4134 C   0  0  0  0  0  0  0  0  0  0  0  0
   -1.5231   -0.1849    0.4730 C   0  0  0  0  0  0  0  0  0  0  0  0
   -1.7385    0.9601    1.1475 C   0  0  0  0  0  0  0  0  0  0  0  0
   -3.0745    1.6446    1.2298 C   0  0  0  0  0  0  0  0  0  0  0  0
   -4.0962    1.0987    0.2330 C   0  0  0  0  0  0  0  0  0  0  0  0
   -4.0417   -0.4227    0.1730 C   0  0  0  0  0  0  0  0  0  0  0  0
   -2.6484   -0.9090   -0.2342 C   0  0  0  0  0  0  0  0  0  0  0  0
    3.8120   -1.5545    0.1208 N   0  0  0  0  0  0  0  0  0  0  0  0
    5.0198   -0.8956    0.7085 N   0  3  0  0  0  4  0  0  0  0  0  0
    4.3186    2.2987    0.0446 H   0  0  0  0  0  0  0  0  0  0  0  0
    2.3372    1.2657   -0.9547 H   0  0  0  0  0  0  0  0  0  0  0  0
    1.7984   -2.3815   -0.8442 H   0  0  0  0  0  0  0  0  0  0  0  0
   -0.1627   -1.3741   -1.6793 H   0  0  0  0  0  0  0  0  0  0  0  0
    0.4656    0.2330   -1.3932 H   0  0  0  0  0  0  0  0  0  0  0  0
   -0.2314   -1.8672    0.7567 H   0  0  0  0  0  0  0  0  0  0  0  0
    0.5183   -0.3320    1.1230 H   0  0  0  0  0  0  0  0  0  0  0  0
   -0.9270    1.4491    1.6812 H   0  0  0  0  0  0  0  0  0  0  0  0
   -2.9437    2.7185    1.0548 H   0  0  0  0  0  0  0  0  0  0  0  0
   -3.4566    1.5300    2.2512 H   0  0  0  0  0  0  0  0  0  0  0  0
   -3.8934    1.5097   -0.7644 H   0  0  0  0  0  0  0  0  0  0  0  0
   -5.1017    1.4305    0.5152 H   0  0  0  0  0  0  0  0  0  0  0  0
   -4.3033   -0.8363    1.1554 H   0  0  0  0  0  0  0  0  0  0  0  0
   -4.7854   -0.7987   -0.5387 H   0  0  0  0  0  0  0  0  0  0  0  0
   -2.5242   -0.7757   -1.3158 H   0  0  0  0  0  0  0  0  0  0  0  0
   -2.5851   -1.9847   -0.0315 H   0  0  0  0  0  0  0  0  0  0  0  0
    5.7501   -1.4603    1.1401 H   0  0  0  0  0  0  0  0  0  0  0  0
  1  2  1  0
  2  3  2  0
  3  4  1  0
  4  5  2  0
  5  6  1  0
  6  7  1  0
  7  8  1  0
  8  9  1  0
  9 10  2  0
 10 11  1  0
 11 12  1  0
 12 13  1  0
 13 14  1  0
  5 15  1  0
 15 16  2  0
 16  2  1  0
 14  9  1  0
  3 17  1  0
  4 18  1  0
  6 19  1  0
  7 20  1  0
  7 21  1  0
  8 22  1  0
  8 23  1  0
 10 24  1  0
 11 25  1  0
 11 26  1  0
 12 27  1  0
 12 28  1  0
 13 29  1  0
 13 30  1  0
 14 31  1  0
 14 32  1  0
 16 33  1  0
M  CHG  1  16   1
M  END
>  <enum_code>  
M

>  <uuid>  
4a202479-ce3a-42c9-954f-3ba43be7a1b7

>  <sha256>  
6149034aeb29bd8fa0ec2e92d34f1bde0841ca524aca24497fa6898cc79b03a9

>  <std_smi>  
Clc1ccc(NCCC2=CCCCC2)nn1

>  <enum_smi>  
Clc1ccc(NCCC2=CCCCC2)n[nH+]1

$$$$
21a5a1d7-7769-4a29-a359-bab32a6af716
     RDKit          3D

 33 34  0  0  0  0  0  0  0  0999 V2000
    5.0583    2.9889   -1.1377 Cl  0  0  0  0  0  0  0  0  0  0  0  0
    4.0373    1.7793   -0.5024 C   0  0  0  0  0  0  0  0  0  0  0  0
    4.5214    0.5528   -0.0873 C   0  0  0  0  0  0  0  0  0  0  0  0
    3.6147   -0.3818    0.4181 C   0  0  0  0  0  0  0  0  0  0  0  0
    2.2771   -0.0298    0.4686 C   0  0  0  0  0  0  0  0  0  0  0  0
    1.2849   -0.9257    1.0035 N   0  3  0  0  0  4  0  0  0  0  0  0
    0.8281   -1.9649    0.0354 C   0  0  0  0  0  0  0  0  0  0  0  0
   -0.0613   -1.3754   -1.0692 C   0  0  0  0  0  0  0  0  0  0  0  0
   -1.2770   -0.5926   -0.6100 C   0  0  0  0  0  0  0  0  0  0  0  0
   -2.0218   -0.9125    0.4663 C   0  0  0  0  0  0  0  0  0  0  0  0
   -3.2192   -0.1195    0.9211 C   0  0  0  0  0  0  0  0  0  0  0  0
   -3.3225    1.2534    0.2605 C   0  0  0  0  0  0  0  0  0  0  0  0
   -3.0363    1.1574   -1.2316 C   0  0  0  0  0  0  0  0  0  0  0  0
   -1.6386    0.5914   -1.4892 C   0  0  0  0  0  0  0  0  0  0  0  0
    1.8367    1.1729    0.0711 N   0  0  0  0  0  0  0  0  0  0  0  0
    2.7271    2.0901   -0.4286 N   0  0  0  0  0  0  0  0  0  0  0  0
    5.5819    0.3265   -0.1524 H   0  0  0  0  0  0  0  0  0  0  0  0
    3.9720   -1.3492    0.7544 H   0  0  0  0  0  0  0  0  0  0  0  0
    0.4929   -0.3092    1.2404 H   0  0  0  0  0  0  0  0  0  0  0  0
    1.6233   -1.3206    1.8851 H   0  0  0  0  0  0  0  0  0  0  0  0
    1.7107   -2.4628   -0.3820 H   0  0  0  0  0  0  0  0  0  0  0  0
    0.2789   -2.7069    0.6245 H   0  0  0  0  0  0  0  0  0  0  0  0
    0.5635   -0.7282   -1.6981 H   0  0  0  0  0  0  0  0  0  0  0  0
   -0.4027   -2.1868   -1.7239 H   0  0  0  0  0  0  0  0  0  0  0  0
   -1.8244   -1.8050    1.0543 H   0  0  0  0  0  0  0  0  0  0  0  0
   -3.1741    0.0106    2.0084 H   0  0  0  0  0  0  0  0  0  0  0  0
   -4.1212   -0.7045    0.7046 H   0  0  0  0  0  0  0  0  0  0  0  0
   -2.6066    1.9426    0.7263 H   0  0  0  0  0  0  0  0  0  0  0  0
   -4.3219    1.6704    0.4283 H   0  0  0  0  0  0  0  0  0  0  0  0
   -3.1254    2.1453   -1.6975 H   0  0  0  0  0  0  0  0  0  0  0  0
   -3.7871    0.5129   -1.7065 H   0  0  0  0  0  0  0  0  0  0  0  0
   -1.5749    0.3009   -2.5449 H   0  0  0  0  0  0  0  0  0  0  0  0
   -0.8936    1.3801   -1.3261 H   0  0  0  0  0  0  0  0  0  0  0  0
  1  2  1  0
  2  3  2  0
  3  4  1  0
  4  5  2  0
  5  6  1  0
  6  7  1  0
  7  8  1  0
  8  9  1  0
  9 10  2  0
 10 11  1  0
 11 12  1  0
 12 13  1  0
 13 14  1  0
  5 15  1  0
 15 16  2  0
 16  2  1  0
 14  9  1  0
  3 17  1  0
  4 18  1  0
  6 19  1  0
  6 20  1  0
  7 21  1  0
  7 22  1  0
  8 23  1  0
  8 24  1  0
 10 25  1  0
 11 26  1  0
 11 27  1  0
 12 28  1  0
 12 29  1  0
 13 30  1  0
 13 31  1  0
 14 32  1  0
 14 33  1  0
M  CHG  1   6   1
M  END
>  <enum_code>  
M

>  <uuid>  
21a5a1d7-7769-4a29-a359-bab32a6af716

>  <sha256>  
6149034aeb29bd8fa0ec2e92d34f1bde0841ca524aca24497fa6898cc79b03a9

>  <std_smi>  
Clc1ccc(NCCC2=CCCCC2)nn1

>  <enum_smi>  
Clc1ccc([NH2+]CCC2=CCCCC2)nn1

$$$$
95895546-26c6-4484-b864-64703bedb5e3
     RDKit          3D

 34 35  0  0  0  0  0  0  0  0999 V2000
    5.2957    2.5984   -0.8435 Cl  0  0  0  0  0  0  0  0  0  0  0  0
    4.1152    1.5237   -0.2377 C   0  0  0  0  0  0  0  0  0  0  0  0
    4.4370    0.2113    0.1087 C   0  0  0  0  0  0  0  0  0  0  0  0
    3.4623   -0.6664    0.6065 C   0  0  0  0  0  0  0  0  0  0  0  0
    2.1541   -0.2341    0.7513 C   0  0  0  0  0  0  0  0  0  0  0  0
    1.1547   -1.1276    1.2999 N   0  3  0  0  0  4  0  0  0  0  0  0
    0.6116   -2.1397    0.3310 C   0  0  0  0  0  0  0  0  0  0  0  0
   -0.2313   -1.4871   -0.7739 C   0  0  0  0  0  0  0  0  0  0  0  0
   -1.3752   -0.5945   -0.3325 C   0  0  0  0  0  0  0  0  0  0  0  0
   -2.0791   -0.7597    0.8046 C   0  0  0  0  0  0  0  0  0  0  0  0
   -3.2248    0.1285    1.2206 C   0  0  0  0  0  0  0  0  0  0  0  0
   -3.3112    1.4214    0.4134 C   0  0  0  0  0  0  0  0  0  0  0  0
   -3.1058    1.1446   -1.0691 C   0  0  0  0  0  0  0  0  0  0  0  0
   -1.7445    0.4955   -1.3247 C   0  0  0  0  0  0  0  0  0  0  0  0
    1.7659    1.0169    0.4506 N   0  0  0  0  0  0  0  0  0  0  0  0
    2.8560    1.9478   -0.0895 N   0  3  0  0  0  4  0  0  0  0  0  0
    5.4652   -0.1396   -0.0054 H   0  0  0  0  0  0  0  0  0  0  0  0
    3.7596   -1.6807    0.8716 H   0  0  0  0  0  0  0  0  0  0  0  0
    0.3732   -0.5414    1.6314 H   0  0  0  0  0  0  0  0  0  0  0  0
    1.5219   -1.5969    2.1386 H   0  0  0  0  0  0  0  0  0  0  0  0
    1.4571   -2.6978   -0.0861 H   0  0  0  0  0  0  0  0  0  0  0  0
    0.0109   -2.8358    0.9257 H   0  0  0  0  0  0  0  0  0  0  0  0
    0.4452   -0.8999   -1.4087 H   0  0  0  0  0  0  0  0  0  0  0  0
   -0.6396   -2.2745   -1.4196 H   0  0  0  0  0  0  0  0  0  0  0  0
   -1.9083   -1.5998    1.4736 H   0  0  0  0  0  0  0  0  0  0  0  0
   -3.1210    0.3770    2.2830 H   0  0  0  0  0  0  0  0  0  0  0  0
   -4.1565   -0.4397    1.1127 H   0  0  0  0  0  0  0  0  0  0  0  0
   -4.2847    1.8965    0.5787 H   0  0  0  0  0  0  0  0  0  0  0  0
   -2.5475    2.1277    0.7630 H   0  0  0  0  0  0  0  0  0  0  0  0
   -3.1831    2.0760   -1.6413 H   0  0  0  0  0  0  0  0  0  0  0  0
   -3.9026    0.4821   -1.4307 H   0  0  0  0  0  0  0  0  0  0  0  0
   -0.9643    1.2663   -1.2901 H   0  0  0  0  0  0  0  0  0  0  0  0
   -1.7456    0.0845   -2.3416 H   0  0  0  0  0  0  0  0  0  0  0  0
    2.6394    2.9170   -0.3442 H   0  0  0  0  0  0  0  0  0  0  0  0
  1  2  1  0
  2  3  2  0
  3  4  1  0
  4  5  2  0
  5  6  1  0
  6  7  1  0
  7  8  1  0
  8  9  1  0
  9 10  2  0
 10 11  1  0
 11 12  1  0
 12 13  1  0
 13 14  1  0
  5 15  1  0
 15 16  2  0
 16  2  1  0
 14  9  1  0
  3 17  1  0
  4 18  1  0
  6 19  1  0
  6 20  1  0
  7 21  1  0
  7 22  1  0
  8 23  1  0
  8 24  1  0
 10 25  1  0
 11 26  1  0
 11 27  1  0
 12 28  1  0
 12 29  1  0
 13 30  1  0
 13 31  1  0
 14 32  1  0
 14 33  1  0
 16 34  1  0
M  CHG  2   6   1  16   1
M  END
>  <enum_code>  
M

>  <uuid>  
95895546-26c6-4484-b864-64703bedb5e3

>  <sha256>  
6149034aeb29bd8fa0ec2e92d34f1bde0841ca524aca24497fa6898cc79b03a9

>  <std_smi>  
Clc1ccc(NCCC2=CCCCC2)nn1

>  <enum_smi>  
Clc1ccc([NH2+]CCC2=CCCCC2)n[nH+]1

$$$$
6a17202a-cc9c-4bc1-819d-b3f02a448f2b
     RDKit          3D

 34 35  0  0  0  0  0  0  0  0999 V2000
    5.6178    3.3834    0.7186 Cl  0  0  0  0  0  0  0  0  0  0  0  0
    4.5790    2.1512    0.1640 C   0  0  0  0  0  0  0  0  0  0  0  0
    4.4337    0.9625    0.8481 C   0  0  0  0  0  0  0  0  0  0  0  0
    3.5659   -0.0185    0.3527 C   0  0  0  0  0  0  0  0  0  0  0  0
    2.8347    0.1848   -0.8276 C   0  0  0  0  0  0  0  0  0  0  0  0
    1.9526   -0.8959   -1.2863 N   0  3  0  0  0  4  0  0  0  0  0  0
    0.4831   -0.6231   -1.0966 C   0  0  0  0  0  0  0  0  0  0  0  0
    0.0891   -0.6676    0.3829 C   0  0  0  0  0  0  0  0  0  0  0  0
   -1.4009   -0.5602    0.5647 C   0  0  0  0  0  0  0  0  0  0  0  0
   -2.1365   -1.6143    0.9638 C   0  0  0  0  0  0  0  0  0  0  0  0
   -3.6295   -1.5724    1.1601 C   0  0  0  0  0  0  0  0  0  0  0  0
   -4.2809   -0.3225    0.5707 C   0  0  0  0  0  0  0  0  0  0  0  0
   -3.4559    0.9195    0.8819 C   0  0  0  0  0  0  0  0  0  0  0  0
   -2.0370    0.7934    0.3220 C   0  0  0  0  0  0  0  0  0  0  0  0
    2.9940    1.3497   -1.4885 N   0  3  0  0  0  4  0  0  0  0  0  0
    3.9246    2.4265   -0.9729 N   0  0  0  0  0  0  0  0  0  0  0  0
    4.9927    0.7906    1.7693 H   0  0  0  0  0  0  0  0  0  0  0  0
    3.4773   -0.9437    0.9238 H   0  0  0  0  0  0  0  0  0  0  0  0
    2.1461   -1.1296   -2.2731 H   0  0  0  0  0  0  0  0  0  0  0  0
    2.1842   -1.7705   -0.7842 H   0  0  0  0  0  0  0  0  0  0  0  0
    0.2622    0.3421   -1.5658 H   0  0  0  0  0  0  0  0  0  0  0  0
   -0.0343   -1.4084   -1.6589 H   0  0  0  0  0  0  0  0  0  0  0  0
    0.5731    0.1451    0.9373 H   0  0  0  0  0  0  0  0  0  0  0  0
    0.4590   -1.6006    0.8277 H   0  0  0  0  0  0  0  0  0  0  0  0
   -1.6768   -2.5765    1.1833 H   0  0  0  0  0  0  0  0  0  0  0  0
   -4.0805   -2.4601    0.7022 H   0  0  0  0  0  0  0  0  0  0  0  0
   -3.8356   -1.6256    2.2358 H   0  0  0  0  0  0  0  0  0  0  0  0
   -5.2960   -0.2121    0.9685 H   0  0  0  0  0  0  0  0  0  0  0  0
   -4.3753   -0.4341   -0.5170 H   0  0  0  0  0  0  0  0  0  0  0  0
   -3.4109    1.0650    1.9688 H   0  0  0  0  0  0  0  0  0  0  0  0
   -3.9398    1.8085    0.4618 H   0  0  0  0  0  0  0  0  0  0  0  0
   -1.4183    1.5800    0.7701 H   0  0  0  0  0  0  0  0  0  0  0  0
   -2.0589    0.9776   -0.7591 H   0  0  0  0  0  0  0  0  0  0  0  0
    2.4979    1.5557   -2.3583 H   0  0  0  0  0  0  0  0  0  0  0  0
  1  2  1  0
  2  3  2  0
  3  4  1  0
  4  5  2  0
  5  6  1  0
  6  7  1  0
  7  8  1  0
  8  9  1  0
  9 10  2  0
 10 11  1  0
 11 12  1  0
 12 13  1  0
 13 14  1  0
  5 15  1  0
 15 16  2  0
 16  2  1  0
 14  9  1  0
  3 17  1  0
  4 18  1  0
  6 19  1  0
  6 20  1  0
  7 21  1  0
  7 22  1  0
  8 23  1  0
  8 24  1  0
 10 25  1  0
 11 26  1  0
 11 27  1  0
 12 28  1  0
 12 29  1  0
 13 30  1  0
 13 31  1  0
 14 32  1  0
 14 33  1  0
 15 34  1  0
M  CHG  2   6   1  15   1
M  END
>  <enum_code>  
M

>  <uuid>  
6a17202a-cc9c-4bc1-819d-b3f02a448f2b

>  <sha256>  
6149034aeb29bd8fa0ec2e92d34f1bde0841ca524aca24497fa6898cc79b03a9

>  <std_smi>  
Clc1ccc(NCCC2=CCCCC2)nn1

>  <enum_smi>  
Clc1ccc([NH2+]CCC2=CCCCC2)[nH+]n1

$$$$
af8fe6c8-d6eb-4a3d-b648-d20ea01f2a00
     RDKit          3D

 33 34  0  0  0  0  0  0  0  0999 V2000
    6.2716   -1.8877    2.4670 Cl  0  0  0  0  0  0  0  0  0  0  0  0
    4.9101   -1.3468    1.5863 C   0  0  0  0  0  0  0  0  0  0  0  0
    4.5742   -1.9039    0.3729 C   0  0  0  0  0  0  0  0  0  0  0  0
    3.4543   -1.4225   -0.3077 C   0  0  0  0  0  0  0  0  0  0  0  0
    2.6593   -0.3920    0.2156 C   0  0  0  0  0  0  0  0  0  0  0  0
    1.5605    0.1387   -0.4241 N   0  0  0  0  0  0  0  0  0  0  0  0
    0.8442   -0.6123   -1.4646 C   0  0  0  0  0  0  0  0  0  0  0  0
   -0.4009    0.1648   -1.9298 C   0  0  0  0  0  0  0  0  0  0  0  0
   -1.5153    0.3941   -0.9195 C   0  0  0  0  0  0  0  0  0  0  0  0
   -1.6498   -0.2586    0.2523 C   0  0  0  0  0  0  0  0  0  0  0  0
   -2.8045   -0.0618    1.1984 C   0  0  0  0  0  0  0  0  0  0  0  0
   -3.9732    0.7052    0.5830 C   0  0  0  0  0  0  0  0  0  0  0  0
   -3.4749    1.8878   -0.2361 C   0  0  0  0  0  0  0  0  0  0  0  0
   -2.5414    1.4249   -1.3565 C   0  0  0  0  0  0  0  0  0  0  0  0
    3.0308    0.1380    1.3932 N   0  3  0  0  0  4  0  0  0  0  0  0
    4.2252   -0.3517    2.1632 N   0  0  0  0  0  0  0  0  0  0  0  0
    5.1722   -2.7056   -0.0539 H   0  0  0  0  0  0  0  0  0  0  0  0
    3.2144   -1.8731   -1.2697 H   0  0  0  0  0  0  0  0  0  0  0  0
    0.9646    0.8042    0.0623 H   0  0  0  0  0  0  0  0  0  0  0  0
    0.5604   -1.6058   -1.0964 H   0  0  0  0  0  0  0  0  0  0  0  0
    1.4998   -0.7496   -2.3333 H   0  0  0  0  0  0  0  0  0  0  0  0
   -0.0617    1.1436   -2.2943 H   0  0  0  0  0  0  0  0  0  0  0  0
   -0.8329   -0.3612   -2.7910 H   0  0  0  0  0  0  0  0  0  0  0  0
   -0.9387   -1.0160    0.5649 H   0  0  0  0  0  0  0  0  0  0  0  0
   -2.4343    0.4704    2.0835 H   0  0  0  0  0  0  0  0  0  0  0  0
   -3.1619   -1.0398    1.5413 H   0  0  0  0  0  0  0  0  0  0  0  0
   -4.6472    1.0503    1.3751 H   0  0  0  0  0  0  0  0  0  0  0  0
   -4.5562    0.0344   -0.0617 H   0  0  0  0  0  0  0  0  0  0  0  0
   -4.3225    2.4350   -0.6647 H   0  0  0  0  0  0  0  0  0  0  0  0
   -2.9419    2.5873    0.4213 H   0  0  0  0  0  0  0  0  0  0  0  0
   -2.0342    2.3081   -1.7629 H   0  0  0  0  0  0  0  0  0  0  0  0
   -3.1364    0.9918   -2.1703 H   0  0  0  0  0  0  0  0  0  0  0  0
    2.4861    0.9098    1.7706 H   0  0  0  0  0  0  0  0  0  0  0  0
  1  2  1  0
  2  3  2  0
  3  4  1  0
  4  5  2  0
  5  6  1  0
  6  7  1  0
  7  8  1  0
  8  9  1  0
  9 10  2  0
 10 11  1  0
 11 12  1  0
 12 13  1  0
 13 14  1  0
  5 15  1  0
 15 16  2  0
 16  2  1  0
 14  9  1  0
  3 17  1  0
  4 18  1  0
  6 19  1  0
  7 20  1  0
  7 21  1  0
  8 22  1  0
  8 23  1  0
 10 24  1  0
 11 25  1  0
 11 26  1  0
 12 27  1  0
 12 28  1  0
 13 29  1  0
 13 30  1  0
 14 31  1  0
 14 32  1  0
 15 33  1  0
M  CHG  1  15   1
M  END
>  <enum_code>  
M

>  <uuid>  
af8fe6c8-d6eb-4a3d-b648-d20ea01f2a00

>  <sha256>  
6149034aeb29bd8fa0ec2e92d34f1bde0841ca524aca24497fa6898cc79b03a9

>  <std_smi>  
Clc1ccc(NCCC2=CCCCC2)nn1

>  <enum_smi>  
Clc1ccc(NCCC2=CCCCC2)[nH+]n1

$$$$
2cdd3fce-2c3d-4fc9-809c-22718798f2c8
     RDKit          3D

 34 35  0  0  0  0  0  0  0  0999 V2000
    6.2627   -2.1355   -0.9569 Cl  0  0  0  0  0  0  0  0  0  0  0  0
    4.9979   -1.0562   -0.5698 C   0  0  0  0  0  0  0  0  0  0  0  0
    5.1281    0.3113   -0.7539 C   0  0  0  0  0  0  0  0  0  0  0  0
    4.0761    1.1763   -0.4235 C   0  0  0  0  0  0  0  0  0  0  0  0
    2.8497    0.7136    0.0799 C   0  0  0  0  0  0  0  0  0  0  0  0
    1.8757    1.6138    0.4582 N   0  0  0  0  0  0  0  0  0  0  0  0
    0.5292    1.2606    0.9251 C   0  0  0  0  0  0  0  0  0  0  0  0
   -0.3822    0.8690   -0.2487 C   0  0  0  0  0  0  0  0  0  0  0  0
   -1.7123    0.2379    0.0959 C   0  0  0  0  0  0  0  0  0  0  0  0
   -2.1910    0.0633    1.3430 C   0  0  0  0  0  0  0  0  0  0  0  0
   -3.5530   -0.5061    1.6509 C   0  0  0  0  0  0  0  0  0  0  0  0
   -4.4752   -0.5724    0.4363 C   0  0  0  0  0  0  0  0  0  0  0  0
   -3.7238   -1.0800   -0.7854 C   0  0  0  0  0  0  0  0  0  0  0  0
   -2.5361   -0.1740   -1.1138 C   0  0  0  0  0  0  0  0  0  0  0  0
    2.7267   -0.6098    0.2840 N   0  3  0  0  0  4  0  0  0  0  0  0
    3.8615   -1.5454   -0.0682 N   0  3  0  0  0  4  0  0  0  0  0  0
    6.0575    0.7284   -1.1493 H   0  0  0  0  0  0  0  0  0  0  0  0
    4.2287    2.2513   -0.5605 H   0  0  0  0  0  0  0  0  0  0  0  0
    1.8671    2.4930   -0.0722 H   0  0  0  0  0  0  0  0  0  0  0  0
    0.6039    0.4577    1.6669 H   0  0  0  0  0  0  0  0  0  0  0  0
    0.1076    2.1306    1.4421 H   0  0  0  0  0  0  0  0  0  0  0  0
    0.1587    0.1612   -0.8905 H   0  0  0  0  0  0  0  0  0  0  0  0
   -0.5628    1.7612   -0.8624 H   0  0  0  0  0  0  0  0  0  0  0  0
   -1.6382    0.3692    2.2265 H   0  0  0  0  0  0  0  0  0  0  0  0
   -4.0315    0.1017    2.4275 H   0  0  0  0  0  0  0  0  0  0  0  0
   -3.4169   -1.5107    2.0691 H   0  0  0  0  0  0  0  0  0  0  0  0
   -4.8816    0.4253    0.2265 H   0  0  0  0  0  0  0  0  0  0  0  0
   -5.3286   -1.2242    0.6545 H   0  0  0  0  0  0  0  0  0  0  0  0
   -4.3974   -1.1318   -1.6482 H   0  0  0  0  0  0  0  0  0  0  0  0
   -3.3673   -2.1009   -0.5977 H   0  0  0  0  0  0  0  0  0  0  0  0
   -2.8996    0.7364   -1.6070 H   0  0  0  0  0  0  0  0  0  0  0  0
   -1.8976   -0.6971   -1.8359 H   0  0  0  0  0  0  0  0  0  0  0  0
    1.8588   -0.9599    0.6905 H   0  0  0  0  0  0  0  0  0  0  0  0
    3.8051   -2.5577    0.0701 H   0  0  0  0  0  0  0  0  0  0  0  0
  1  2  1  0
  2  3  2  0
  3  4  1  0
  4  5  2  0
  5  6  1  0
  6  7  1  0
  7  8  1  0
  8  9  1  0
  9 10  2  0
 10 11  1  0
 11 12  1  0
 12 13  1  0
 13 14  1  0
  5 15  1  0
 15 16  2  0
 16  2  1  0
 14  9  1  0
  3 17  1  0
  4 18  1  0
  6 19  1  0
  7 20  1  0
  7 21  1  0
  8 22  1  0
  8 23  1  0
 10 24  1  0
 11 25  1  0
 11 26  1  0
 12 27  1  0
 12 28  1  0
 13 29  1  0
 13 30  1  0
 14 31  1  0
 14 32  1  0
 15 33  1  0
 16 34  1  0
M  CHG  2  15   1  16   1
M  END
>  <enum_code>  
M

>  <uuid>  
2cdd3fce-2c3d-4fc9-809c-22718798f2c8

>  <sha256>  
6149034aeb29bd8fa0ec2e92d34f1bde0841ca524aca24497fa6898cc79b03a9

>  <std_smi>  
Clc1ccc(NCCC2=CCCCC2)nn1

>  <enum_smi>  
Clc1ccc(NCCC2=CCCCC2)[nH+][nH+]1

$$$$
ec8dbabb-b72c-4786-9b9d-0d8313af80a3
     RDKit          3D

 31 32  0  0  0  0  0  0  0  0999 V2000
   -3.9323    2.3331   -0.6496 C   0  0  0  0  0  0  0  0  0  0  0  0
   -2.7729    1.3964   -0.5346 C   0  0  0  0  0  0  0  0  0  0  0  0
   -1.1969    1.9741   -0.8545 S   0  0  0  0  0  0  0  0  0  0  0  0
   -0.5017    0.4559   -0.5495 C   0  0  0  0  0  0  0  0  0  0  0  0
    0.8239    0.2895   -0.6633 N   0  0  0  0  0  0  0  0  0  0  0  0
    1.2191   -0.9537   -0.3856 C   0  0  0  0  0  0  0  0  0  0  0  0
    2.9533   -1.3369   -0.5155 S   0  0  0  0  0  0  0  0  0  0  0  0
    3.7037    0.2895   -0.1260 C   0  0  0  0  0  0  0  0  0  0  0  0
    5.1832    0.2338   -0.5043 C   0  0  0  0  0  0  0  0  0  0  0  0
    3.5483    0.6152    1.3576 C   0  0  0  0  0  0  0  0  0  0  0  0
    0.4276   -1.9735   -0.0166 N   0  0  0  0  0  0  0  0  0  0  0  0
   -0.8964   -1.7731    0.0914 C   0  0  0  0  0  0  0  0  0  0  0  0
   -1.6435   -2.8708    0.5044 N   0  0  0  0  0  0  0  0  0  0  0  0
   -1.4331   -0.5028   -0.1883 C   0  0  0  0  0  0  0  0  0  0  0  0
   -2.7792    0.0474   -0.2022 C   0  0  0  0  0  0  0  0  0  0  0  0
   -4.0149   -0.7426    0.0957 C   0  0  0  0  0  0  0  0  0  0  0  0
   -4.5325    2.3076    0.2660 H   0  0  0  0  0  0  0  0  0  0  0  0
   -3.6193    3.3699   -0.8103 H   0  0  0  0  0  0  0  0  0  0  0  0
   -4.5707    2.0401   -1.4896 H   0  0  0  0  0  0  0  0  0  0  0  0
    3.2321    1.0707   -0.7314 H   0  0  0  0  0  0  0  0  0  0  0  0
    5.3145    0.0219   -1.5714 H   0  0  0  0  0  0  0  0  0  0  0  0
    5.7247   -0.5279    0.0683 H   0  0  0  0  0  0  0  0  0  0  0  0
    5.6636    1.1982   -0.3040 H   0  0  0  0  0  0  0  0  0  0  0  0
    4.0217    1.5767    1.5865 H   0  0  0  0  0  0  0  0  0  0  0  0
    2.4965    0.6977    1.6498 H   0  0  0  0  0  0  0  0  0  0  0  0
    4.0216   -0.1427    1.9921 H   0  0  0  0  0  0  0  0  0  0  0  0
   -1.0183   -3.5961    0.8431 H   0  0  0  0  0  0  0  0  0  0  0  0
   -2.4104   -2.6472    1.1222 H   0  0  0  0  0  0  0  0  0  0  0  0
   -4.0342   -1.6651   -0.4933 H   0  0  0  0  0  0  0  0  0  0  0  0
   -4.0523   -0.9992    1.1591 H   0  0  0  0  0  0  0  0  0  0  0  0
   -4.9254   -0.1859   -0.1461 H   0  0  0  0  0  0  0  0  0  0  0  0
  1  2  1  0
  2  3  1  0
  3  4  1  0
  4  5  2  0
  5  6  1  0
  6  7  1  0
  7  8  1  0
  8  9  1  0
  8 10  1  0
  6 11  2  0
 11 12  1  0
 12 13  1  0
 12 14  2  0
 14 15  1  0
 15 16  1  0
 15  2  2  0
 14  4  1  0
  1 17  1  0
  1 18  1  0
  1 19  1  0
  8 20  1  0
  9 21  1  0
  9 22  1  0
  9 23  1  0
 10 24  1  0
 10 25  1  0
 10 26  1  0
 13 27  1  0
 13 28  1  0
 16 29  1  0
 16 30  1  0
 16 31  1  0
M  END
>  <enum_code>  
B

>  <uuid>  
ec8dbabb-b72c-4786-9b9d-0d8313af80a3

>  <sha256>  
f184dd6951dd47e0055fc30c5b0e95ad9abd5d41652c716f1f97c53591a4cb37

>  <std_smi>  
Cc1sc2nc(SC(C)C)nc(N)c2c1C

>  <enum_smi>  
Cc1sc2nc(SC(C)C)nc(N)c2c1C

$$$$
b79aa8b7-138f-4964-9c84-2d60fec0dda8
     RDKit          3D

 31 32  0  0  0  0  0  0  0  0999 V2000
   -4.9877    1.1169    1.0083 C   0  0  0  0  0  0  0  0  0  0  0  0
   -3.5366    0.9331    0.7008 C   0  0  0  0  0  0  0  0  0  0  0  0
   -2.4082    2.1133    1.2290 S   0  0  0  0  0  0  0  0  0  0  0  0
   -1.1199    1.2602    0.5561 C   0  0  0  0  0  0  0  0  0  0  0  0
    0.1745    1.6233    0.5893 N   0  0  0  0  0  0  0  0  0  0  0  0
    1.1050    0.8142   -0.0030 C   0  0  0  0  0  0  0  0  0  0  0  0
    2.7464    1.4126    0.1191 S   0  0  0  0  0  0  0  0  0  0  0  0
    3.7160   -0.1255   -0.0605 C   0  0  0  0  0  0  0  0  0  0  0  0
    3.5997   -0.9826    1.1977 C   0  0  0  0  0  0  0  0  0  0  0  0
    5.1749    0.2522   -0.3118 C   0  0  0  0  0  0  0  0  0  0  0  0
    0.8553   -0.2977   -0.6221 N   0  0  0  0  0  0  0  0  0  0  0  0
   -0.4533   -0.7043   -0.6837 C   0  0  0  0  0  0  0  0  0  0  0  0
   -0.7061   -1.8043   -1.2988 N   0  0  0  0  0  0  0  0  0  0  0  0
   -1.5002    0.0955   -0.0681 C   0  0  0  0  0  0  0  0  0  0  0  0
   -2.9246   -0.1108    0.0138 C   0  0  0  0  0  0  0  0  0  0  0  0
   -3.6327   -1.2925   -0.5706 C   0  0  0  0  0  0  0  0  0  0  0  0
   -5.5753    1.0984    0.0844 H   0  0  0  0  0  0  0  0  0  0  0  0
   -5.3399    0.3087    1.6577 H   0  0  0  0  0  0  0  0  0  0  0  0
   -5.1923    2.0662    1.5135 H   0  0  0  0  0  0  0  0  0  0  0  0
    0.4900    2.4764    1.0324 H   0  0  0  0  0  0  0  0  0  0  0  0
    3.3595   -0.6892   -0.9289 H   0  0  0  0  0  0  0  0  0  0  0  0
    4.1952   -1.8963    1.0900 H   0  0  0  0  0  0  0  0  0  0  0  0
    3.9670   -0.4547    2.0853 H   0  0  0  0  0  0  0  0  0  0  0  0
    2.5672   -1.2929    1.3876 H   0  0  0  0  0  0  0  0  0  0  0  0
    5.2813    0.8477   -1.2255 H   0  0  0  0  0  0  0  0  0  0  0  0
    5.6011    0.8210    0.5228 H   0  0  0  0  0  0  0  0  0  0  0  0
    5.7841   -0.6496   -0.4390 H   0  0  0  0  0  0  0  0  0  0  0  0
    0.2086   -2.1356   -1.6244 H   0  0  0  0  0  0  0  0  0  0  0  0
   -4.7081   -1.2650   -0.3701 H   0  0  0  0  0  0  0  0  0  0  0  0
   -3.2421   -2.2219   -0.1440 H   0  0  0  0  0  0  0  0  0  0  0  0
   -3.4989   -1.3170   -1.6566 H   0  0  0  0  0  0  0  0  0  0  0  0
  1  2  1  0
  2  3  1  0
  3  4  1  0
  4  5  1  0
  5  6  1  0
  6  7  1  0
  7  8  1  0
  8  9  1  0
  8 10  1  0
  6 11  2  0
 11 12  1  0
 12 13  2  3
 12 14  1  0
 14 15  1  0
 15 16  1  0
 15  2  2  0
 14  4  2  0
  1 17  1  0
  1 18  1  0
  1 19  1  0
  5 20  1  0
  8 21  1  0
  9 22  1  0
  9 23  1  0
  9 24  1  0
 10 25  1  0
 10 26  1  0
 10 27  1  0
 13 28  1  0
 16 29  1  0
 16 30  1  0
 16 31  1  0
M  END
>  <enum_code>  
T

>  <uuid>  
b79aa8b7-138f-4964-9c84-2d60fec0dda8

>  <sha256>  
f184dd6951dd47e0055fc30c5b0e95ad9abd5d41652c716f1f97c53591a4cb37

>  <std_smi>  
Cc1sc2nc(SC(C)C)nc(N)c2c1C

>  <enum_smi>  
Cc1sc2[nH]c(SC(C)C)nc(=N)c2c1C

$$$$
9fa9adb1-e22c-43b3-b7e4-db346eb22e34
     RDKit          3D

 31 32  0  0  0  0  0  0  0  0999 V2000
    4.0345    1.9420   -1.1936 C   0  0  0  0  0  0  0  0  0  0  0  0
    2.8409    1.0979   -0.8752 C   0  0  0  0  0  0  0  0  0  0  0  0
    1.2928    1.8134   -0.9089 S   0  0  0  0  0  0  0  0  0  0  0  0
    0.5255    0.3587   -0.4801 C   0  0  0  0  0  0  0  0  0  0  0  0
   -0.8349    0.3246   -0.3448 N   0  0  0  0  0  0  0  0  0  0  0  0
   -1.2735   -0.8489   -0.0066 C   0  0  0  0  0  0  0  0  0  0  0  0
   -2.9825   -1.1459    0.2238 S   0  0  0  0  0  0  0  0  0  0  0  0
   -3.6352    0.5525    0.3975 C   0  0  0  0  0  0  0  0  0  0  0  0
   -3.2878    1.1210    1.7711 C   0  0  0  0  0  0  0  0  0  0  0  0
   -5.1510    0.5049    0.2110 C   0  0  0  0  0  0  0  0  0  0  0  0
   -0.4767   -1.9390    0.1867 N   0  0  0  0  0  0  0  0  0  0  0  0
    0.8764   -1.9877    0.0649 C   0  0  0  0  0  0  0  0  0  0  0  0
    1.5600   -3.0621    0.2580 N   0  0  0  0  0  0  0  0  0  0  0  0
    1.4343   -0.6852   -0.3068 C   0  0  0  0  0  0  0  0  0  0  0  0
    2.8002   -0.2504   -0.5374 C   0  0  0  0  0  0  0  0  0  0  0  0
    4.0232   -1.1071   -0.4349 C   0  0  0  0  0  0  0  0  0  0  0  0
    3.7663    2.9753   -1.4376 H   0  0  0  0  0  0  0  0  0  0  0  0
    4.7169    1.9687   -0.3376 H   0  0  0  0  0  0  0  0  0  0  0  0
    4.5721    1.5269   -2.0526 H   0  0  0  0  0  0  0  0  0  0  0  0
   -3.2203    1.1921   -0.3885 H   0  0  0  0  0  0  0  0  0  0  0  0
   -3.7101    0.5148    2.5807 H   0  0  0  0  0  0  0  0  0  0  0  0
   -3.6920    2.1342    1.8753 H   0  0  0  0  0  0  0  0  0  0  0  0
   -2.2060    1.1886    1.9245 H   0  0  0  0  0  0  0  0  0  0  0  0
   -5.6387   -0.1180    0.9697 H   0  0  0  0  0  0  0  0  0  0  0  0
   -5.5758    1.5120    0.2907 H   0  0  0  0  0  0  0  0  0  0  0  0
   -5.4194    0.1173   -0.7783 H   0  0  0  0  0  0  0  0  0  0  0  0
   -0.9276   -2.8062    0.4355 H   0  0  0  0  0  0  0  0  0  0  0  0
    2.5548   -2.9023    0.1181 H   0  0  0  0  0  0  0  0  0  0  0  0
    3.9747   -1.9289   -1.1564 H   0  0  0  0  0  0  0  0  0  0  0  0
    4.1192   -1.5159    0.5760 H   0  0  0  0  0  0  0  0  0  0  0  0
    4.9398   -0.5475   -0.6441 H   0  0  0  0  0  0  0  0  0  0  0  0
  1  2  1  0
  2  3  1  0
  3  4  1  0
  4  5  1  0
  5  6  2  0
  6  7  1  0
  7  8  1  0
  8  9  1  0
  8 10  1  0
  6 11  1  0
 11 12  1  0
 12 13  2  3
 12 14  1  0
 14 15  1  0
 15 16  1  0
 15  2  2  0
 14  4  2  0
  1 17  1  0
  1 18  1  0
  1 19  1  0
  8 20  1  0
  9 21  1  0
  9 22  1  0
  9 23  1  0
 10 24  1  0
 10 25  1  0
 10 26  1  0
 11 27  1  0
 13 28  1  0
 16 29  1  0
 16 30  1  0
 16 31  1  0
M  END
>  <enum_code>  
T

>  <uuid>  
9fa9adb1-e22c-43b3-b7e4-db346eb22e34

>  <sha256>  
f184dd6951dd47e0055fc30c5b0e95ad9abd5d41652c716f1f97c53591a4cb37

>  <std_smi>  
Cc1sc2nc(SC(C)C)nc(N)c2c1C

>  <enum_smi>  
Cc1sc2nc(SC(C)C)[nH]c(=N)c2c1C

$$$$
74a169dd-52ba-4a55-be95-bca90e98f128
     RDKit          3D

 33 34  0  0  0  0  0  0  0  0999 V2000
    4.3705   -1.7601    0.2695 C   0  0  0  0  0  0  0  0  0  0  0  0
    3.0178   -1.2176   -0.0927 C   0  0  0  0  0  0  0  0  0  0  0  0
    1.7208   -2.3010   -0.3288 S   0  0  0  0  0  0  0  0  0  0  0  0
    0.6629   -1.0381   -0.6684 C   0  0  0  0  0  0  0  0  0  0  0  0
   -0.6343   -1.2582   -0.9581 N   0  3  0  0  0  4  0  0  0  0  0  0
   -1.4021   -0.2096   -1.1963 C   0  0  0  0  0  0  0  0  0  0  0  0
   -3.0876   -0.4288   -1.6186 S   0  0  0  0  0  0  0  0  0  0  0  0
   -3.9277   -0.4055    0.0270 C   0  0  0  0  0  0  0  0  0  0  0  0
   -3.7452    0.9350    0.7313 C   0  0  0  0  0  0  0  0  0  0  0  0
   -3.4812   -1.5713    0.9032 C   0  0  0  0  0  0  0  0  0  0  0  0
   -0.8769    1.0124   -1.1884 N   0  3  0  0  0  4  0  0  0  0  0  0
    0.3894    1.3356   -0.9187 C   0  0  0  0  0  0  0  0  0  0  0  0
    0.7536    2.6547   -0.9450 N   0  0  0  0  0  0  0  0  0  0  0  0
    1.2248    0.2277   -0.6273 C   0  0  0  0  0  0  0  0  0  0  0  0
    2.6377    0.1093   -0.2770 C   0  0  0  0  0  0  0  0  0  0  0  0
    3.5872    1.2658   -0.1294 C   0  0  0  0  0  0  0  0  0  0  0  0
    5.1084   -1.4640   -0.4834 H   0  0  0  0  0  0  0  0  0  0  0  0
    4.3785   -2.8531    0.3338 H   0  0  0  0  0  0  0  0  0  0  0  0
    4.6860   -1.3651    1.2407 H   0  0  0  0  0  0  0  0  0  0  0  0
   -0.9985   -2.2108   -0.9983 H   0  0  0  0  0  0  0  0  0  0  0  0
   -4.9948   -0.5329   -0.1887 H   0  0  0  0  0  0  0  0  0  0  0  0
   -4.3526    0.9678    1.6429 H   0  0  0  0  0  0  0  0  0  0  0  0
   -4.0660    1.7674    0.0956 H   0  0  0  0  0  0  0  0  0  0  0  0
   -2.7060    1.1071    1.0301 H   0  0  0  0  0  0  0  0  0  0  0  0
   -3.6085   -2.5300    0.3888 H   0  0  0  0  0  0  0  0  0  0  0  0
   -4.0850   -1.6088    1.8170 H   0  0  0  0  0  0  0  0  0  0  0  0
   -2.4350   -1.4794    1.2125 H   0  0  0  0  0  0  0  0  0  0  0  0
   -1.5074    1.7795   -1.4215 H   0  0  0  0  0  0  0  0  0  0  0  0
    1.7183    2.9293   -0.7680 H   0  0  0  0  0  0  0  0  0  0  0  0
    0.1594    3.4406   -1.1884 H   0  0  0  0  0  0  0  0  0  0  0  0
    4.5903    0.9435    0.1647 H   0  0  0  0  0  0  0  0  0  0  0  0
    3.2254    1.9557    0.6395 H   0  0  0  0  0  0  0  0  0  0  0  0
    3.6778    1.8026   -1.0790 H   0  0  0  0  0  0  0  0  0  0  0  0
  1  2  1  0
  2  3  1  0
  3  4  1  0
  4  5  2  0
  5  6  1  0
  6  7  1  0
  7  8  1  0
  8  9  1  0
  8 10  1  0
  6 11  2  0
 11 12  1  0
 12 13  1  0
 12 14  2  0
 14 15  1  0
 15 16  1  0
 15  2  2  0
 14  4  1  0
  1 17  1  0
  1 18  1  0
  1 19  1  0
  5 20  1  0
  8 21  1  0
  9 22  1  0
  9 23  1  0
  9 24  1  0
 10 25  1  0
 10 26  1  0
 10 27  1  0
 11 28  1  0
 13 29  1  0
 13 30  1  0
 16 31  1  0
 16 32  1  0
 16 33  1  0
M  CHG  2   5   1  11   1
M  END
>  <enum_code>  
M

>  <uuid>  
74a169dd-52ba-4a55-be95-bca90e98f128

>  <sha256>  
f184dd6951dd47e0055fc30c5b0e95ad9abd5d41652c716f1f97c53591a4cb37

>  <std_smi>  
Cc1sc2nc(SC(C)C)nc(N)c2c1C

>  <enum_smi>  
Cc1sc2[nH+]c(SC(C)C)[nH+]c(N)c2c1C

$$$$
4f9df167-f6fb-4e4a-ae9e-ce757f5d1cfb
     RDKit          3D

 32 33  0  0  0  0  0  0  0  0999 V2000
   -4.7915    1.9651    0.3144 C   0  0  0  0  0  0  0  0  0  0  0  0
   -3.3667    1.5159    0.1947 C   0  0  0  0  0  0  0  0  0  0  0  0
   -2.1406    2.3951    0.9978 S   0  0  0  0  0  0  0  0  0  0  0  0
   -0.9439    1.3575    0.4193 C   0  0  0  0  0  0  0  0  0  0  0  0
    0.3576    1.5330    0.7149 N   0  3  0  0  0  4  0  0  0  0  0  0
    1.2191    0.6637    0.2159 C   0  0  0  0  0  0  0  0  0  0  0  0
    2.9166    0.9499    0.6246 S   0  0  0  0  0  0  0  0  0  0  0  0
    3.7363   -0.5484   -0.0603 C   0  0  0  0  0  0  0  0  0  0  0  0
    3.5313   -1.7406    0.8706 C   0  0  0  0  0  0  0  0  0  0  0  0
    5.2257   -0.2460   -0.2161 C   0  0  0  0  0  0  0  0  0  0  0  0
    0.8659   -0.3745   -0.5600 N   0  0  0  0  0  0  0  0  0  0  0  0
   -0.4355   -0.5692   -0.8704 C   0  0  0  0  0  0  0  0  0  0  0  0
   -0.7037   -1.6525   -1.6736 N   0  0  0  0  0  0  0  0  0  0  0  0
   -1.4137    0.3259   -0.3744 C   0  0  0  0  0  0  0  0  0  0  0  0
   -2.8579    0.4355   -0.5203 C   0  0  0  0  0  0  0  0  0  0  0  0
   -3.7006   -0.4947   -1.3421 C   0  0  0  0  0  0  0  0  0  0  0  0
   -5.4179    1.1424    0.6747 H   0  0  0  0  0  0  0  0  0  0  0  0
   -5.1677    2.2857   -0.6626 H   0  0  0  0  0  0  0  0  0  0  0  0
   -4.9089    2.8014    1.0112 H   0  0  0  0  0  0  0  0  0  0  0  0
    0.6802    2.2999    1.2922 H   0  0  0  0  0  0  0  0  0  0  0  0
    3.3319   -0.7706   -1.0534 H   0  0  0  0  0  0  0  0  0  0  0  0
    4.0319   -2.6276    0.4663 H   0  0  0  0  0  0  0  0  0  0  0  0
    3.9484   -1.5545    1.8669 H   0  0  0  0  0  0  0  0  0  0  0  0
    2.4725   -1.9930    0.9864 H   0  0  0  0  0  0  0  0  0  0  0  0
    5.7473   -1.1119   -0.6392 H   0  0  0  0  0  0  0  0  0  0  0  0
    5.7001   -0.0139    0.7444 H   0  0  0  0  0  0  0  0  0  0  0  0
    5.3923    0.5972   -0.8959 H   0  0  0  0  0  0  0  0  0  0  0  0
    0.0718   -2.2930   -1.8064 H   0  0  0  0  0  0  0  0  0  0  0  0
   -1.6250   -2.0658   -1.6804 H   0  0  0  0  0  0  0  0  0  0  0  0
   -3.7063   -1.4935   -0.8943 H   0  0  0  0  0  0  0  0  0  0  0  0
   -4.7384   -0.1555   -1.4131 H   0  0  0  0  0  0  0  0  0  0  0  0
   -3.3106   -0.5630   -2.3625 H   0  0  0  0  0  0  0  0  0  0  0  0
  1  2  1  0
  2  3  1  0
  3  4  1  0
  4  5  2  0
  5  6  1  0
  6  7  1  0
  7  8  1  0
  8  9  1  0
  8 10  1  0
  6 11  2  0
 11 12  1  0
 12 13  1  0
 12 14  2  0
 14 15  1  0
 15 16  1  0
 15  2  2  0
 14  4  1  0
  1 17  1  0
  1 18  1  0
  1 19  1  0
  5 20  1  0
  8 21  1  0
  9 22  1  0
  9 23  1  0
  9 24  1  0
 10 25  1  0
 10 26  1  0
 10 27  1  0
 13 28  1  0
 13 29  1  0
 16 30  1  0
 16 31  1  0
 16 32  1  0
M  CHG  1   5   1
M  END
>  <enum_code>  
M

>  <uuid>  
4f9df167-f6fb-4e4a-ae9e-ce757f5d1cfb

>  <sha256>  
f184dd6951dd47e0055fc30c5b0e95ad9abd5d41652c716f1f97c53591a4cb37

>  <std_smi>  
Cc1sc2nc(SC(C)C)nc(N)c2c1C

>  <enum_smi>  
Cc1sc2[nH+]c(SC(C)C)nc(N)c2c1C

$$$$
782bf74c-db09-40b7-a061-695a3266123c
     RDKit          3D

 32 33  0  0  0  0  0  0  0  0999 V2000
    3.8495   -0.6906   -2.1838 C   0  0  0  0  0  0  0  0  0  0  0  0
    2.6595   -0.4201   -1.3147 C   0  0  0  0  0  0  0  0  0  0  0  0
    1.1427   -1.0551   -1.7646 S   0  0  0  0  0  0  0  0  0  0  0  0
    0.3819   -0.3790   -0.4120 C   0  0  0  0  0  0  0  0  0  0  0  0
   -0.9343   -0.5639   -0.2304 N   0  0  0  0  0  0  0  0  0  0  0  0
   -1.3849    0.0365    0.8638 C   0  0  0  0  0  0  0  0  0  0  0  0
   -3.0883   -0.0711    1.3311 S   0  0  0  0  0  0  0  0  0  0  0  0
   -3.9712   -0.5681   -0.2119 C   0  0  0  0  0  0  0  0  0  0  0  0
   -3.7664    0.4132   -1.3618 C   0  0  0  0  0  0  0  0  0  0  0  0
   -3.7018   -2.0157   -0.6101 C   0  0  0  0  0  0  0  0  0  0  0  0
   -0.6234    0.7248    1.7050 N   0  3  0  0  0  4  0  0  0  0  0  0
    0.6830    0.9249    1.5736 C   0  0  0  0  0  0  0  0  0  0  0  0
    1.3440    1.6619    2.5287 N   0  0  0  0  0  0  0  0  0  0  0  0
    1.2414    0.3355    0.4147 C   0  0  0  0  0  0  0  0  0  0  0  0
    2.5955    0.3111   -0.1342 C   0  0  0  0  0  0  0  0  0  0  0  0
    3.7833    0.9863    0.4841 C   0  0  0  0  0  0  0  0  0  0  0  0
    3.6067   -1.3258   -3.0420 H   0  0  0  0  0  0  0  0  0  0  0  0
    4.6309   -1.1958   -1.6065 H   0  0  0  0  0  0  0  0  0  0  0  0
    4.2561    0.2504   -2.5687 H   0  0  0  0  0  0  0  0  0  0  0  0
   -5.0315   -0.5126    0.0641 H   0  0  0  0  0  0  0  0  0  0  0  0
   -3.9874    1.4405   -1.0524 H   0  0  0  0  0  0  0  0  0  0  0  0
   -2.7514    0.3860   -1.7668 H   0  0  0  0  0  0  0  0  0  0  0  0
   -4.4451    0.1697   -2.1872 H   0  0  0  0  0  0  0  0  0  0  0  0
   -3.8728   -2.6981    0.2295 H   0  0  0  0  0  0  0  0  0  0  0  0
   -2.6861   -2.1738   -0.9808 H   0  0  0  0  0  0  0  0  0  0  0  0
   -4.3832   -2.3150   -1.4148 H   0  0  0  0  0  0  0  0  0  0  0  0
   -1.1048    1.1202    2.5026 H   0  0  0  0  0  0  0  0  0  0  0  0
    0.9312    1.9784    3.3967 H   0  0  0  0  0  0  0  0  0  0  0  0
    2.3530    1.7558    2.4793 H   0  0  0  0  0  0  0  0  0  0  0  0
    3.9929    0.5558    1.4684 H   0  0  0  0  0  0  0  0  0  0  0  0
    3.5952    2.0589    0.5949 H   0  0  0  0  0  0  0  0  0  0  0  0
    4.6863    0.8748   -0.1233 H   0  0  0  0  0  0  0  0  0  0  0  0
  1  2  1  0
  2  3  1  0
  3  4  1  0
  4  5  2  0
  5  6  1  0
  6  7  1  0
  7  8  1  0
  8  9  1  0
  8 10  1  0
  6 11  2  0
 11 12  1  0
 12 13  1  0
 12 14  2  0
 14 15  1  0
 15 16  1  0
 15  2  2  0
 14  4  1  0
  1 17  1  0
  1 18  1  0
  1 19  1  0
  8 20  1  0
  9 21  1  0
  9 22  1  0
  9 23  1  0
 10 24  1  0
 10 25  1  0
 10 26  1  0
 11 27  1  0
 13 28  1  0
 13 29  1  0
 16 30  1  0
 16 31  1  0
 16 32  1  0
M  CHG  1  11   1
M  END
>  <enum_code>  
M

>  <uuid>  
782bf74c-db09-40b7-a061-695a3266123c

>  <sha256>  
f184dd6951dd47e0055fc30c5b0e95ad9abd5d41652c716f1f97c53591a4cb37

>  <std_smi>  
Cc1sc2nc(SC(C)C)nc(N)c2c1C

>  <enum_smi>  
Cc1sc2nc(SC(C)C)[nH+]c(N)c2c1C

$$$$
32b193ba-a25e-435b-8b5e-a3340f91557d
     RDKit          3D

 33 34  0  0  0  0  0  0  0  0999 V2000
   -3.9692    2.4005   -0.1121 C   0  0  0  0  0  0  0  0  0  0  0  0
   -2.7852    1.4789   -0.0393 C   0  0  0  0  0  0  0  0  0  0  0  0
   -1.2370    2.1527    0.1871 S   0  0  0  0  0  0  0  0  0  0  0  0
   -0.4983    0.6342    0.1669 C   0  0  0  0  0  0  0  0  0  0  0  0
    0.8288    0.5398    0.3145 N   0  0  0  0  0  0  0  0  0  0  0  0
    1.2801   -0.7033    0.2746 C   0  0  0  0  0  0  0  0  0  0  0  0
    2.9972   -1.0640    0.4576 S   0  0  0  0  0  0  0  0  0  0  0  0
    3.7550    0.6184    0.4746 C   0  0  0  0  0  0  0  0  0  0  0  0
    3.8462    1.1742   -0.9439 C   0  0  0  0  0  0  0  0  0  0  0  0
    5.1465    0.5069    1.0943 C   0  0  0  0  0  0  0  0  0  0  0  0
    0.5031   -1.7723    0.1126 N   0  3  0  0  0  4  0  0  0  0  0  0
   -0.8188   -1.7143   -0.0336 C   0  0  0  0  0  0  0  0  0  0  0  0
   -1.6783   -2.8671   -0.2093 N   0  3  0  0  0  4  0  0  0  0  0  0
   -1.3855   -0.4215   -0.0098 C   0  0  0  0  0  0  0  0  0  0  0  0
   -2.7533    0.0909   -0.1326 C   0  0  0  0  0  0  0  0  0  0  0  0
   -3.9951   -0.7310   -0.3342 C   0  0  0  0  0  0  0  0  0  0  0  0
   -3.6888    3.4534   -0.0042 H   0  0  0  0  0  0  0  0  0  0  0  0
   -4.6810    2.1611    0.6847 H   0  0  0  0  0  0  0  0  0  0  0  0
   -4.4750    2.2866   -1.0766 H   0  0  0  0  0  0  0  0  0  0  0  0
    3.1555    1.2848    1.1037 H   0  0  0  0  0  0  0  0  0  0  0  0
    2.8595    1.2825   -1.4053 H   0  0  0  0  0  0  0  0  0  0  0  0
    4.3081    2.1678   -0.9327 H   0  0  0  0  0  0  0  0  0  0  0  0
    4.4574    0.5356   -1.5917 H   0  0  0  0  0  0  0  0  0  0  0  0
    5.8031   -0.1503    0.5126 H   0  0  0  0  0  0  0  0  0  0  0  0
    5.0964    0.1244    2.1199 H   0  0  0  0  0  0  0  0  0  0  0  0
    5.6234    1.4925    1.1382 H   0  0  0  0  0  0  0  0  0  0  0  0
    1.0289   -2.6434    0.1146 H   0  0  0  0  0  0  0  0  0  0  0  0
   -2.3851   -2.9044    0.5432 H   0  0  0  0  0  0  0  0  0  0  0  0
   -1.1947   -3.7739   -0.2120 H   0  0  0  0  0  0  0  0  0  0  0  0
   -2.1942   -2.7967   -1.1015 H   0  0  0  0  0  0  0  0  0  0  0  0
   -4.8971   -0.1157   -0.3993 H   0  0  0  0  0  0  0  0  0  0  0  0
   -3.9223   -1.3043   -1.2635 H   0  0  0  0  0  0  0  0  0  0  0  0
   -4.1303   -1.4230    0.5026 H   0  0  0  0  0  0  0  0  0  0  0  0
  1  2  1  0
  2  3  1  0
  3  4  1  0
  4  5  2  0
  5  6  1  0
  6  7  1  0
  7  8  1  0
  8  9  1  0
  8 10  1  0
  6 11  2  0
 11 12  1  0
 12 13  1  0
 12 14  2  0
 14 15  1  0
 15 16  1  0
 15  2  2  0
 14  4  1  0
  1 17  1  0
  1 18  1  0
  1 19  1  0
  8 20  1  0
  9 21  1  0
  9 22  1  0
  9 23  1  0
 10 24  1  0
 10 25  1  0
 10 26  1  0
 11 27  1  0
 13 28  1  0
 13 29  1  0
 13 30  1  0
 16 31  1  0
 16 32  1  0
 16 33  1  0
M  CHG  2  11   1  13   1
M  END
>  <enum_code>  
M

>  <uuid>  
32b193ba-a25e-435b-8b5e-a3340f91557d

>  <sha256>  
f184dd6951dd47e0055fc30c5b0e95ad9abd5d41652c716f1f97c53591a4cb37

>  <std_smi>  
Cc1sc2nc(SC(C)C)nc(N)c2c1C

>  <enum_smi>  
Cc1sc2nc(SC(C)C)[nH+]c([NH3+])c2c1C

$$$$
1289cb30-4d7e-4cdb-9283-2a9c951af593
     RDKit          3D

 33 34  0  0  0  0  0  0  0  0999 V2000
   -3.7983    3.1836    0.0792 C   0  0  0  0  0  0  0  0  0  0  0  0
   -2.6423    2.2528   -0.1555 C   0  0  0  0  0  0  0  0  0  0  0  0
   -1.3089    2.8037   -1.0723 S   0  0  0  0  0  0  0  0  0  0  0  0
   -0.5090    1.3327   -0.8977 C   0  0  0  0  0  0  0  0  0  0  0  0
    0.7079    1.1061   -1.4384 N   0  3  0  0  0  4  0  0  0  0  0  0
    1.2527   -0.0851   -1.2367 C   0  0  0  0  0  0  0  0  0  0  0  0
    2.8032   -0.3763   -2.0188 S   0  0  0  0  0  0  0  0  0  0  0  0
    3.8611   -1.0501   -0.6661 C   0  0  0  0  0  0  0  0  0  0  0  0
    3.8298   -0.1821    0.5880 C   0  0  0  0  0  0  0  0  0  0  0  0
    3.5439   -2.5108   -0.3635 C   0  0  0  0  0  0  0  0  0  0  0  0
    0.6480   -1.0785   -0.5402 N   0  0  0  0  0  0  0  0  0  0  0  0
   -0.5604   -0.8489   -0.0139 C   0  0  0  0  0  0  0  0  0  0  0  0
   -1.1548   -1.9363    0.6942 N   0  3  0  0  0  4  0  0  0  0  0  0
   -1.2120    0.3865   -0.1603 C   0  0  0  0  0  0  0  0  0  0  0  0
   -2.4841    0.9391    0.2788 C   0  0  0  0  0  0  0  0  0  0  0  0
   -3.5115    0.2107    1.0980 C   0  0  0  0  0  0  0  0  0  0  0  0
   -3.9952    3.2770    1.1520 H   0  0  0  0  0  0  0  0  0  0  0  0
   -4.6982    2.7934   -0.4075 H   0  0  0  0  0  0  0  0  0  0  0  0
   -3.6115    4.1891   -0.3128 H   0  0  0  0  0  0  0  0  0  0  0  0
    1.1936    1.8117   -1.9907 H   0  0  0  0  0  0  0  0  0  0  0  0
    4.8813   -1.0145   -1.0665 H   0  0  0  0  0  0  0  0  0  0  0  0
    4.5707   -0.5401    1.3113 H   0  0  0  0  0  0  0  0  0  0  0  0
    2.8562   -0.2078    1.0873 H   0  0  0  0  0  0  0  0  0  0  0  0
    4.0748    0.8604    0.3594 H   0  0  0  0  0  0  0  0  0  0  0  0
    4.2938   -2.9228    0.3212 H   0  0  0  0  0  0  0  0  0  0  0  0
    2.5702   -2.6393    0.1170 H   0  0  0  0  0  0  0  0  0  0  0  0
    3.5652   -3.1203   -1.2733 H   0  0  0  0  0  0  0  0  0  0  0  0
   -2.0298   -2.2456    0.2558 H   0  0  0  0  0  0  0  0  0  0  0  0
   -1.3143   -1.7133    1.6832 H   0  0  0  0  0  0  0  0  0  0  0  0
   -0.4974   -2.7279    0.6567 H   0  0  0  0  0  0  0  0  0  0  0  0
   -3.0860   -0.0782    2.0643 H   0  0  0  0  0  0  0  0  0  0  0  0
   -4.3968    0.8223    1.2940 H   0  0  0  0  0  0  0  0  0  0  0  0
   -3.8421   -0.6911    0.5736 H   0  0  0  0  0  0  0  0  0  0  0  0
  1  2  1  0
  2  3  1  0
  3  4  1  0
  4  5  2  0
  5  6  1  0
  6  7  1  0
  7  8  1  0
  8  9  1  0
  8 10  1  0
  6 11  2  0
 11 12  1  0
 12 13  1  0
 12 14  2  0
 14 15  1  0
 15 16  1  0
 15  2  2  0
 14  4  1  0
  1 17  1  0
  1 18  1  0
  1 19  1  0
  5 20  1  0
  8 21  1  0
  9 22  1  0
  9 23  1  0
  9 24  1  0
 10 25  1  0
 10 26  1  0
 10 27  1  0
 13 28  1  0
 13 29  1  0
 13 30  1  0
 16 31  1  0
 16 32  1  0
 16 33  1  0
M  CHG  2   5   1  13   1
M  END
>  <enum_code>  
M

>  <uuid>  
1289cb30-4d7e-4cdb-9283-2a9c951af593

>  <sha256>  
f184dd6951dd47e0055fc30c5b0e95ad9abd5d41652c716f1f97c53591a4cb37

>  <std_smi>  
Cc1sc2nc(SC(C)C)nc(N)c2c1C

>  <enum_smi>  
Cc1sc2[nH+]c(SC(C)C)nc([NH3+])c2c1C

$$$$
5aa9a8d3-4cce-4a9d-a2da-785484f7a19d
     RDKit          3D

 32 33  0  0  0  0  0  0  0  0999 V2000
   -3.7966    2.0989   -1.5143 C   0  0  0  0  0  0  0  0  0  0  0  0
   -2.6455    1.2414   -1.0836 C   0  0  0  0  0  0  0  0  0  0  0  0
   -1.0776    1.9225   -1.0423 S   0  0  0  0  0  0  0  0  0  0  0  0
   -0.3868    0.4727   -0.5070 C   0  0  0  0  0  0  0  0  0  0  0  0
    0.9303    0.3858   -0.2778 N   0  0  0  0  0  0  0  0  0  0  0  0
    1.3408   -0.8052    0.1460 C   0  0  0  0  0  0  0  0  0  0  0  0
    3.0636   -1.0753    0.4683 S   0  0  0  0  0  0  0  0  0  0  0  0
    3.7099    0.6424    0.5524 C   0  0  0  0  0  0  0  0  0  0  0  0
    3.3149    1.3001    1.8721 C   0  0  0  0  0  0  0  0  0  0  0  0
    5.2312    0.5849    0.4226 C   0  0  0  0  0  0  0  0  0  0  0  0
    0.5497   -1.8739    0.3378 N   0  0  0  0  0  0  0  0  0  0  0  0
   -0.7433   -1.7310    0.0915 C   0  0  0  0  0  0  0  0  0  0  0  0
   -1.5246   -2.9016    0.3120 N   0  3  0  0  0  4  0  0  0  0  0  0
   -1.3152   -0.5418   -0.3496 C   0  0  0  0  0  0  0  0  0  0  0  0
   -2.6537   -0.0931   -0.6914 C   0  0  0  0  0  0  0  0  0  0  0  0
   -3.8909   -0.9358   -0.6344 C   0  0  0  0  0  0  0  0  0  0  0  0
   -4.2713    1.6724   -2.4041 H   0  0  0  0  0  0  0  0  0  0  0  0
   -4.5436    2.1546   -0.7155 H   0  0  0  0  0  0  0  0  0  0  0  0
   -3.4907    3.1219   -1.7567 H   0  0  0  0  0  0  0  0  0  0  0  0
    3.3224    1.2255   -0.2897 H   0  0  0  0  0  0  0  0  0  0  0  0
    3.7146    2.3193    1.9220 H   0  0  0  0  0  0  0  0  0  0  0  0
    2.2286    1.3746    1.9836 H   0  0  0  0  0  0  0  0  0  0  0  0
    3.7096    0.7505    2.7344 H   0  0  0  0  0  0  0  0  0  0  0  0
    5.5338    0.1315   -0.5280 H   0  0  0  0  0  0  0  0  0  0  0  0
    5.6534    1.5959    0.4479 H   0  0  0  0  0  0  0  0  0  0  0  0
    5.6915    0.0161    1.2387 H   0  0  0  0  0  0  0  0  0  0  0  0
   -2.2157   -2.7429    1.0478 H   0  0  0  0  0  0  0  0  0  0  0  0
   -1.9506   -3.2201   -0.5608 H   0  0  0  0  0  0  0  0  0  0  0  0
   -0.8555   -3.6127    0.6322 H   0  0  0  0  0  0  0  0  0  0  0  0
   -4.0633   -1.2849    0.3886 H   0  0  0  0  0  0  0  0  0  0  0  0
   -3.7873   -1.8057   -1.2905 H   0  0  0  0  0  0  0  0  0  0  0  0
   -4.7823   -0.3871   -0.9521 H   0  0  0  0  0  0  0  0  0  0  0  0
  1  2  1  0
  2  3  1  0
  3  4  1  0
  4  5  2  0
  5  6  1  0
  6  7  1  0
  7  8  1  0
  8  9  1  0
  8 10  1  0
  6 11  2  0
 11 12  1  0
 12 13  1  0
 12 14  2  0
 14 15  1  0
 15 16  1  0
 15  2  2  0
 14  4  1  0
  1 17  1  0
  1 18  1  0
  1 19  1  0
  8 20  1  0
  9 21  1  0
  9 22  1  0
  9 23  1  0
 10 24  1  0
 10 25  1  0
 10 26  1  0
 13 27  1  0
 13 28  1  0
 13 29  1  0
 16 30  1  0
 16 31  1  0
 16 32  1  0
M  CHG  1  13   1
M  END
>  <enum_code>  
M

>  <uuid>  
5aa9a8d3-4cce-4a9d-a2da-785484f7a19d

>  <sha256>  
f184dd6951dd47e0055fc30c5b0e95ad9abd5d41652c716f1f97c53591a4cb37

>  <std_smi>  
Cc1sc2nc(SC(C)C)nc(N)c2c1C

>  <enum_smi>  
Cc1sc2nc(SC(C)C)nc([NH3+])c2c1C

$$$$
18c8a01b-7861-4ac8-bba7-a757593d8507
     RDKit          3D

 39 40  0  0  0  0  0  0  0  0999 V2000
   -3.7131    0.8490   -1.7837 C   0  0  0  0  0  0  0  0  0  0  0  0
   -3.5589   -0.1108   -0.5988 C   0  0  0  0  0  0  0  0  0  0  0  0
   -4.4985    0.2479    0.5576 C   0  0  0  0  0  0  0  0  0  0  0  0
   -3.8901   -1.5336   -1.0752 C   0  0  0  0  0  0  0  0  0  0  0  0
   -2.1804   -0.1855   -0.1553 O   0  0  0  0  0  0  0  0  0  0  0  0
   -1.5400    0.9062    0.3352 C   0  0  0  0  0  0  0  0  0  0  0  0
   -2.0481    2.0139    0.4536 O   0  0  0  0  0  0  0  0  0  0  0  0
   -0.2304    0.6264    0.6900 N   0  0  0  0  0  0  0  0  0  0  0  0
    0.6268    1.7135    1.1421 C   0  0  0  0  0  0  0  0  0  0  0  0
    2.0864    1.4601    0.7967 C   0  0  0  0  0  0  0  0  0  0  0  0
    2.5869    0.1459    1.4157 C   0  0  0  0  0  0  0  0  0  0  0  0
    3.7319   -0.3717    0.6699 N   0  0  0  0  0  0  0  0  0  0  0  0
    5.0416   -0.3360    1.0587 C   0  0  0  0  0  0  0  0  0  0  0  0
    5.7563   -0.9300    0.0454 C   0  0  0  0  0  0  0  0  0  0  0  0
    4.7889   -1.2908   -0.9090 C   0  0  0  0  0  0  0  0  0  0  0  0
    3.5532   -0.9539   -0.5324 N   0  0  0  0  0  0  0  0  0  0  0  0
    1.4800   -0.9096    1.5811 C   0  0  0  0  0  0  0  0  0  0  0  0
    0.3538   -0.7097    0.5747 C   0  0  0  0  0  0  0  0  0  0  0  0
   -3.5599    1.8914   -1.4891 H   0  0  0  0  0  0  0  0  0  0  0  0
   -2.9717    0.6298   -2.5603 H   0  0  0  0  0  0  0  0  0  0  0  0
   -4.7126    0.7782   -2.2262 H   0  0  0  0  0  0  0  0  0  0  0  0
   -4.3579    1.2791    0.8950 H   0  0  0  0  0  0  0  0  0  0  0  0
   -4.3102   -0.3947    1.4250 H   0  0  0  0  0  0  0  0  0  0  0  0
   -5.5488    0.1402    0.2655 H   0  0  0  0  0  0  0  0  0  0  0  0
   -4.9194   -1.6116   -1.4408 H   0  0  0  0  0  0  0  0  0  0  0  0
   -3.2125   -1.8427   -1.8797 H   0  0  0  0  0  0  0  0  0  0  0  0
   -3.7553   -2.2576   -0.2630 H   0  0  0  0  0  0  0  0  0  0  0  0
    0.4985    1.7990    2.2278 H   0  0  0  0  0  0  0  0  0  0  0  0
    0.2981    2.6601    0.6993 H   0  0  0  0  0  0  0  0  0  0  0  0
    2.7073    2.2935    1.1469 H   0  0  0  0  0  0  0  0  0  0  0  0
    2.1897    1.4394   -0.2964 H   0  0  0  0  0  0  0  0  0  0  0  0
    2.9721    0.3637    2.4215 H   0  0  0  0  0  0  0  0  0  0  0  0
    5.3497    0.0996    1.9987 H   0  0  0  0  0  0  0  0  0  0  0  0
    6.8252   -1.0809    0.0003 H   0  0  0  0  0  0  0  0  0  0  0  0
    4.9320   -1.7842   -1.8618 H   0  0  0  0  0  0  0  0  0  0  0  0
    1.8768   -1.9293    1.5106 H   0  0  0  0  0  0  0  0  0  0  0  0
    1.0575   -0.8117    2.5904 H   0  0  0  0  0  0  0  0  0  0  0  0
    0.7128   -0.8230   -0.4542 H   0  0  0  0  0  0  0  0  0  0  0  0
   -0.4176   -1.4695    0.7387 H   0  0  0  0  0  0  0  0  0  0  0  0
  1  2  1  0
  2  3  1  0
  2  4  1  0
  2  5  1  0
  5  6  1  0
  6  7  2  0
  6  8  1  0
  8  9  1  0
  9 10  1  0
 10 11  1  0
 11 12  1  0
 12 13  1  0
 13 14  2  0
 14 15  1  0
 15 16  2  0
 11 17  1  0
 17 18  1  0
 18  8  1  0
 16 12  1  0
  1 19  1  0
  1 20  1  0
  1 21  1  0
  3 22  1  0
  3 23  1  0
  3 24  1  0
  4 25  1  0
  4 26  1  0
  4 27  1  0
  9 28  1  0
  9 29  1  0
 10 30  1  0
 10 31  1  0
 11 32  1  0
 13 33  1  0
 14 34  1  0
 15 35  1  0
 17 36  1  0
 17 37  1  0
 18 38  1  0
 18 39  1  0
M  END
>  <enum_code>  
B

>  <uuid>  
18c8a01b-7861-4ac8-bba7-a757593d8507

>  <sha256>  
4334bda058dd8a43ee9d0d9c7bb1edabd8824594d18609c4fee1cb3dfbf32569

>  <std_smi>  
CC(C)(C)OC(=O)N1CCC(n2cccn2)CC1

>  <enum_smi>  
CC(C)(C)OC(=O)N1CCC(n2cccn2)CC1

$$$$
deb555d5-ea27-4291-93ef-7c89b1a971c1
     RDKit          3D

 40 41  0  0  0  0  0  0  0  0999 V2000
   -4.0470   -1.5604   -1.2200 C   0  0  0  0  0  0  0  0  0  0  0  0
   -3.7035   -0.2665   -0.4680 C   0  0  0  0  0  0  0  0  0  0  0  0
   -4.3414   -0.3199    0.9242 C   0  0  0  0  0  0  0  0  0  0  0  0
   -4.2093    0.9282   -1.2835 C   0  0  0  0  0  0  0  0  0  0  0  0
   -2.2522   -0.2625   -0.3790 O   0  0  0  0  0  0  0  0  0  0  0  0
   -1.6121    0.7473    0.2302 C   0  0  0  0  0  0  0  0  0  0  0  0
   -2.0598    1.7388    0.7639 O   0  0  0  0  0  0  0  0  0  0  0  0
   -0.1648    0.6965    0.2880 N   0  3  0  0  0  4  0  0  0  0  0  0
    0.4369    0.7832   -1.0726 C   0  0  0  0  0  0  0  0  0  0  0  0
    1.9497    0.8643   -0.9454 C   0  0  0  0  0  0  0  0  0  0  0  0
    2.4834   -0.3151   -0.1255 C   0  0  0  0  0  0  0  0  0  0  0  0
    3.9343   -0.3026   -0.0316 N   0  0  0  0  0  0  0  0  0  0  0  0
    4.7330    0.6379    0.5478 C   0  0  0  0  0  0  0  0  0  0  0  0
    6.0238    0.1937    0.3739 C   0  0  0  0  0  0  0  0  0  0  0  0
    5.8934   -1.0220   -0.3211 C   0  0  0  0  0  0  0  0  0  0  0  0
    4.6162   -1.3248   -0.5687 N   0  0  0  0  0  0  0  0  0  0  0  0
    1.8182   -0.3787    1.2534 C   0  0  0  0  0  0  0  0  0  0  0  0
    0.3062   -0.4520    1.1125 C   0  0  0  0  0  0  0  0  0  0  0  0
   -5.1274   -1.6797   -1.3521 H   0  0  0  0  0  0  0  0  0  0  0  0
   -3.5735   -1.5738   -2.2087 H   0  0  0  0  0  0  0  0  0  0  0  0
   -3.6648   -2.4363   -0.6829 H   0  0  0  0  0  0  0  0  0  0  0  0
   -5.4231   -0.4795    0.8612 H   0  0  0  0  0  0  0  0  0  0  0  0
   -3.9038   -1.1277    1.5216 H   0  0  0  0  0  0  0  0  0  0  0  0
   -4.1782    0.6068    1.4830 H   0  0  0  0  0  0  0  0  0  0  0  0
   -4.0439    1.8763   -0.7628 H   0  0  0  0  0  0  0  0  0  0  0  0
   -3.6788    0.9986   -2.2398 H   0  0  0  0  0  0  0  0  0  0  0  0
   -5.2828    0.8471   -1.4855 H   0  0  0  0  0  0  0  0  0  0  0  0
    0.0089    1.5748    0.7949 H   0  0  0  0  0  0  0  0  0  0  0  0
    0.0406    1.6802   -1.5610 H   0  0  0  0  0  0  0  0  0  0  0  0
    0.1324   -0.1045   -1.6392 H   0  0  0  0  0  0  0  0  0  0  0  0
    2.4010    0.8671   -1.9450 H   0  0  0  0  0  0  0  0  0  0  0  0
    2.2275    1.8159   -0.4740 H   0  0  0  0  0  0  0  0  0  0  0  0
    2.2242   -1.2391   -0.6633 H   0  0  0  0  0  0  0  0  0  0  0  0
    4.3450    1.5256    1.0264 H   0  0  0  0  0  0  0  0  0  0  0  0
    6.9342    0.6768    0.7014 H   0  0  0  0  0  0  0  0  0  0  0  0
    6.6726   -1.6962   -0.6557 H   0  0  0  0  0  0  0  0  0  0  0  0
    2.0885    0.5018    1.8506 H   0  0  0  0  0  0  0  0  0  0  0  0
    2.1766   -1.2545    1.8080 H   0  0  0  0  0  0  0  0  0  0  0  0
   -0.0025   -1.3795    0.6162 H   0  0  0  0  0  0  0  0  0  0  0  0
   -0.1780   -0.3854    2.0930 H   0  0  0  0  0  0  0  0  0  0  0  0
  1  2  1  0
  2  3  1  0
  2  4  1  0
  2  5  1  0
  5  6  1  0
  6  7  2  0
  6  8  1  0
  8  9  1  0
  9 10  1  0
 10 11  1  0
 11 12  1  0
 12 13  1  0
 13 14  2  0
 14 15  1  0
 15 16  2  0
 11 17  1  0
 17 18  1  0
 18  8  1  0
 16 12  1  0
  1 19  1  0
  1 20  1  0
  1 21  1  0
  3 22  1  0
  3 23  1  0
  3 24  1  0
  4 25  1  0
  4 26  1  0
  4 27  1  0
  8 28  1  0
  9 29  1  0
  9 30  1  0
 10 31  1  0
 10 32  1  0
 11 33  1  0
 13 34  1  0
 14 35  1  0
 15 36  1  0
 17 37  1  0
 17 38  1  0
 18 39  1  0
 18 40  1  0
M  CHG  1   8   1
M  END
>  <enum_code>  
M

>  <uuid>  
deb555d5-ea27-4291-93ef-7c89b1a971c1

>  <sha256>  
4334bda058dd8a43ee9d0d9c7bb1edabd8824594d18609c4fee1cb3dfbf32569

>  <std_smi>  
CC(C)(C)OC(=O)N1CCC(n2cccn2)CC1

>  <enum_smi>  
CC(C)(C)OC(=O)[NH+]1CCC(n2cccn2)CC1

$$$$
d88fc1f2-2ea1-4945-9bbb-5405046db2d0
     RDKit          3D

 40 41  0  0  0  0  0  0  0  0999 V2000
   -4.1113    0.5132   -1.6642 C   0  0  0  0  0  0  0  0  0  0  0  0
   -3.7076    0.7784   -0.2098 C   0  0  0  0  0  0  0  0  0  0  0  0
   -4.5691   -0.0134    0.7798 C   0  0  0  0  0  0  0  0  0  0  0  0
   -3.8792    2.2773    0.0810 C   0  0  0  0  0  0  0  0  0  0  0  0
   -2.2933    0.5247    0.0003 O   0  0  0  0  0  0  0  0  0  0  0  0
   -1.7738   -0.7167   -0.1664 C   0  0  0  0  0  0  0  0  0  0  0  0
   -2.4118   -1.7042   -0.5039 O   0  0  0  0  0  0  0  0  0  0  0  0
   -0.4079   -0.7472    0.0824 N   0  0  0  0  0  0  0  0  0  0  0  0
    0.3135   -1.9913   -0.1440 C   0  0  0  0  0  0  0  0  0  0  0  0
    1.7639   -1.7291   -0.5123 C   0  0  0  0  0  0  0  0  0  0  0  0
    2.4715   -0.9454    0.5939 C   0  0  0  0  0  0  0  0  0  0  0  0
    3.6780   -0.2817    0.0757 N   0  0  0  0  0  0  0  0  0  0  0  0
    3.8347    0.7366   -0.8842 C   0  0  0  0  0  0  0  0  0  0  0  0
    5.2352    1.0487   -1.0536 C   0  0  0  0  0  0  0  0  0  0  0  0
    5.9669    0.1821   -0.1585 C   0  0  0  0  0  0  0  0  0  0  0  0
    5.0909   -0.6438    0.5502 N   0  3  0  0  0  4  0  0  0  0  0  0
    1.5654    0.0397    1.3395 C   0  0  0  0  0  0  0  0  0  0  0  0
    0.3378    0.4254    0.5265 C   0  0  0  0  0  0  0  0  0  0  0  0
   -3.4274    1.0182   -2.3557 H   0  0  0  0  0  0  0  0  0  0  0  0
   -4.0768   -0.5521   -1.9112 H   0  0  0  0  0  0  0  0  0  0  0  0
   -5.1300    0.8622   -1.8647 H   0  0  0  0  0  0  0  0  0  0  0  0
   -4.5426   -1.0883    0.5771 H   0  0  0  0  0  0  0  0  0  0  0  0
   -4.2070    0.1219    1.8052 H   0  0  0  0  0  0  0  0  0  0  0  0
   -5.6173    0.3016    0.7361 H   0  0  0  0  0  0  0  0  0  0  0  0
   -3.2476    2.8780   -0.5839 H   0  0  0  0  0  0  0  0  0  0  0  0
   -3.5635    2.5143    1.1038 H   0  0  0  0  0  0  0  0  0  0  0  0
   -4.9182    2.6000   -0.0439 H   0  0  0  0  0  0  0  0  0  0  0  0
    0.2490   -2.5794    0.7792 H   0  0  0  0  0  0  0  0  0  0  0  0
   -0.1737   -2.5700   -0.9364 H   0  0  0  0  0  0  0  0  0  0  0  0
    1.7986   -1.1739   -1.4580 H   0  0  0  0  0  0  0  0  0  0  0  0
    2.2901   -2.6740   -0.6910 H   0  0  0  0  0  0  0  0  0  0  0  0
    2.8419   -1.6656    1.3363 H   0  0  0  0  0  0  0  0  0  0  0  0
    2.9728    1.1631   -1.3773 H   0  0  0  0  0  0  0  0  0  0  0  0
    5.6497    1.7889   -1.7250 H   0  0  0  0  0  0  0  0  0  0  0  0
    7.0263    0.0996    0.0161 H   0  0  0  0  0  0  0  0  0  0  0  0
    5.3117   -1.3561    1.2488 H   0  0  0  0  0  0  0  0  0  0  0  0
    1.2215   -0.4414    2.2650 H   0  0  0  0  0  0  0  0  0  0  0  0
    2.1175    0.9369    1.6416 H   0  0  0  0  0  0  0  0  0  0  0  0
   -0.3051    1.0779    1.1266 H   0  0  0  0  0  0  0  0  0  0  0  0
    0.6265    0.9849   -0.3705 H   0  0  0  0  0  0  0  0  0  0  0  0
  1  2  1  0
  2  3  1  0
  2  4  1  0
  2  5  1  0
  5  6  1  0
  6  7  2  0
  6  8  1  0
  8  9  1  0
  9 10  1  0
 10 11  1  0
 11 12  1  0
 12 13  1  0
 13 14  2  0
 14 15  1  0
 15 16  2  0
 11 17  1  0
 17 18  1  0
 18  8  1  0
 16 12  1  0
  1 19  1  0
  1 20  1  0
  1 21  1  0
  3 22  1  0
  3 23  1  0
  3 24  1  0
  4 25  1  0
  4 26  1  0
  4 27  1  0
  9 28  1  0
  9 29  1  0
 10 30  1  0
 10 31  1  0
 11 32  1  0
 13 33  1  0
 14 34  1  0
 15 35  1  0
 16 36  1  0
 17 37  1  0
 17 38  1  0
 18 39  1  0
 18 40  1  0
M  CHG  1  16   1
M  END
>  <enum_code>  
M

>  <uuid>  
d88fc1f2-2ea1-4945-9bbb-5405046db2d0

>  <sha256>  
4334bda058dd8a43ee9d0d9c7bb1edabd8824594d18609c4fee1cb3dfbf32569

>  <std_smi>  
CC(C)(C)OC(=O)N1CCC(n2cccn2)CC1

>  <enum_smi>  
CC(C)(C)OC(=O)N1CCC(n2ccc[nH+]2)CC1

$$$$
1c1af6de-9834-44c0-9996-c604ad38ac88
     RDKit          3D

 41 42  0  0  0  0  0  0  0  0999 V2000
   -4.0719    1.4579    0.6168 C   0  0  0  0  0  0  0  0  0  0  0  0
   -3.5820    0.1948   -0.0991 C   0  0  0  0  0  0  0  0  0  0  0  0
   -3.8241    0.3542   -1.6069 C   0  0  0  0  0  0  0  0  0  0  0  0
   -4.3126   -1.0604    0.3894 C   0  0  0  0  0  0  0  0  0  0  0  0
   -2.1397    0.0453    0.0309 O   0  0  0  0  0  0  0  0  0  0  0  0
   -1.5860   -0.1166    1.2419 C   0  0  0  0  0  0  0  0  0  0  0  0
   -2.0995   -0.1668    2.3366 O   0  0  0  0  0  0  0  0  0  0  0  0
   -0.1402   -0.2520    1.3085 N   0  3  0  0  0  4  0  0  0  0  0  0
    0.3142   -1.5632    0.7619 C   0  0  0  0  0  0  0  0  0  0  0  0
    1.7931   -1.4856    0.4207 C   0  0  0  0  0  0  0  0  0  0  0  0
    2.0424   -0.4386   -0.6707 C   0  0  0  0  0  0  0  0  0  0  0  0
    3.4568   -0.0512   -0.7263 N   0  0  0  0  0  0  0  0  0  0  0  0
    4.3274    0.5142    0.2312 C   0  0  0  0  0  0  0  0  0  0  0  0
    5.6473    0.7020   -0.3286 C   0  0  0  0  0  0  0  0  0  0  0  0
    5.6051    0.2341   -1.6942 C   0  0  0  0  0  0  0  0  0  0  0  0
    4.3273   -0.2350   -2.0137 N   0  3  0  0  0  4  0  0  0  0  0  0
    1.1238    0.7855   -0.5579 C   0  0  0  0  0  0  0  0  0  0  0  0
    0.5760    0.9723    0.8486 C   0  0  0  0  0  0  0  0  0  0  0  0
   -3.9777    1.3726    1.7037 H   0  0  0  0  0  0  0  0  0  0  0  0
   -5.1249    1.6598    0.3930 H   0  0  0  0  0  0  0  0  0  0  0  0
   -3.4783    2.3291    0.3178 H   0  0  0  0  0  0  0  0  0  0  0  0
   -3.2819    1.2228   -1.9987 H   0  0  0  0  0  0  0  0  0  0  0  0
   -4.8875    0.4770   -1.8375 H   0  0  0  0  0  0  0  0  0  0  0  0
   -3.4487   -0.5172   -2.1560 H   0  0  0  0  0  0  0  0  0  0  0  0
   -3.8885   -1.9605   -0.0698 H   0  0  0  0  0  0  0  0  0  0  0  0
   -4.2224   -1.1888    1.4724 H   0  0  0  0  0  0  0  0  0  0  0  0
   -5.3809   -1.0177    0.1513 H   0  0  0  0  0  0  0  0  0  0  0  0
   -0.0627   -0.2902    2.3373 H   0  0  0  0  0  0  0  0  0  0  0  0
   -0.2736   -1.7960   -0.1340 H   0  0  0  0  0  0  0  0  0  0  0  0
    0.1176   -2.3225    1.5262 H   0  0  0  0  0  0  0  0  0  0  0  0
    2.3662   -1.2520    1.3264 H   0  0  0  0  0  0  0  0  0  0  0  0
    2.1528   -2.4625    0.0768 H   0  0  0  0  0  0  0  0  0  0  0  0
    1.8380   -0.9064   -1.6435 H   0  0  0  0  0  0  0  0  0  0  0  0
    3.9853    0.7445    1.2294 H   0  0  0  0  0  0  0  0  0  0  0  0
    6.5076    1.1149    0.1835 H   0  0  0  0  0  0  0  0  0  0  0  0
    6.3816    0.2035   -2.4411 H   0  0  0  0  0  0  0  0  0  0  0  0
    4.0055   -0.6254   -2.9032 H   0  0  0  0  0  0  0  0  0  0  0  0
    1.6472    1.6942   -0.8769 H   0  0  0  0  0  0  0  0  0  0  0  0
    0.2801    0.6587   -1.2486 H   0  0  0  0  0  0  0  0  0  0  0  0
   -0.1043    1.8293    0.9103 H   0  0  0  0  0  0  0  0  0  0  0  0
    1.3920    1.1417    1.5603 H   0  0  0  0  0  0  0  0  0  0  0  0
  1  2  1  0
  2  3  1  0
  2  4  1  0
  2  5  1  0
  5  6  1  0
  6  7  2  0
  6  8  1  0
  8  9  1  0
  9 10  1  0
 10 11  1  0
 11 12  1  0
 12 13  1  0
 13 14  2  0
 14 15  1  0
 15 16  2  0
 11 17  1  0
 17 18  1  0
 18  8  1  0
 16 12  1  0
  1 19  1  0
  1 20  1  0
  1 21  1  0
  3 22  1  0
  3 23  1  0
  3 24  1  0
  4 25  1  0
  4 26  1  0
  4 27  1  0
  8 28  1  0
  9 29  1  0
  9 30  1  0
 10 31  1  0
 10 32  1  0
 11 33  1  0
 13 34  1  0
 14 35  1  0
 15 36  1  0
 16 37  1  0
 17 38  1  0
 17 39  1  0
 18 40  1  0
 18 41  1  0
M  CHG  2   8   1  16   1
M  END
>  <enum_code>  
M

>  <uuid>  
1c1af6de-9834-44c0-9996-c604ad38ac88

>  <sha256>  
4334bda058dd8a43ee9d0d9c7bb1edabd8824594d18609c4fee1cb3dfbf32569

>  <std_smi>  
CC(C)(C)OC(=O)N1CCC(n2cccn2)CC1

>  <enum_smi>  
CC(C)(C)OC(=O)[NH+]1CCC(n2ccc[nH+]2)CC1

$$$$
94339ece-ca4d-4019-a14c-b58ba2f5dc67
     RDKit          3D

 26 27  0  0  0  0  0  0  0  0999 V2000
   -2.3800   -1.9222   -1.1483 O   0  0  0  0  0  0  0  0  0  0  0  0
   -2.7087   -0.7259   -0.5743 C   0  0  0  0  0  0  0  0  0  0  0  0
   -4.0647   -0.4002   -0.5820 C   0  0  0  0  0  0  0  0  0  0  0  0
   -4.5039    0.7819    0.0150 C   0  0  0  0  0  0  0  0  0  0  0  0
   -3.5864    1.6421    0.6165 C   0  0  0  0  0  0  0  0  0  0  0  0
   -2.2261    1.3267    0.6101 C   0  0  0  0  0  0  0  0  0  0  0  0
   -1.7792    0.1444    0.0053 C   0  0  0  0  0  0  0  0  0  0  0  0
   -0.3298   -0.1359   -0.0474 C   0  0  0  0  0  0  0  0  0  0  0  0
    0.5305    0.5603    0.6288 N   0  0  0  0  0  0  0  0  0  0  0  0
    1.8733    0.1912    0.4815 C   0  0  0  0  0  0  0  0  0  0  0  0
    2.6292    0.6699   -0.5930 C   0  0  0  0  0  0  0  0  0  0  0  0
    3.9727    0.3109   -0.7279 C   0  0  0  0  0  0  0  0  0  0  0  0
    4.5632   -0.5209    0.2219 C   0  0  0  0  0  0  0  0  0  0  0  0
    6.2170   -0.9654    0.0586 Cl  0  0  0  0  0  0  0  0  0  0  0  0
    3.8238   -0.9911    1.3059 C   0  0  0  0  0  0  0  0  0  0  0  0
    2.4805   -0.6292    1.4359 C   0  0  0  0  0  0  0  0  0  0  0  0
   -1.6296   -2.3099   -0.6681 H   0  0  0  0  0  0  0  0  0  0  0  0
   -4.7821   -1.0735   -1.0444 H   0  0  0  0  0  0  0  0  0  0  0  0
   -5.5625    1.0301    0.0127 H   0  0  0  0  0  0  0  0  0  0  0  0
   -3.9273    2.5633    1.0829 H   0  0  0  0  0  0  0  0  0  0  0  0
   -1.5170    2.0143    1.0667 H   0  0  0  0  0  0  0  0  0  0  0  0
    0.0007   -0.9681   -0.6951 H   0  0  0  0  0  0  0  0  0  0  0  0
    2.1686    1.3304   -1.3227 H   0  0  0  0  0  0  0  0  0  0  0  0
    4.5498    0.6877   -1.5678 H   0  0  0  0  0  0  0  0  0  0  0  0
    4.2848   -1.6302    2.0538 H   0  0  0  0  0  0  0  0  0  0  0  0
    1.9034   -0.9805    2.2869 H   0  0  0  0  0  0  0  0  0  0  0  0
  1  2  1  0
  2  3  2  0
  3  4  1  0
  4  5  2  0
  5  6  1  0
  6  7  2  0
  7  8  1  0
  8  9  2  0
  9 10  1  0
 10 11  2  0
 11 12  1  0
 12 13  2  0
 13 14  1  0
 13 15  1  0
 15 16  2  0
  7  2  1  0
 16 10  1  0
  1 17  1  0
  3 18  1  0
  4 19  1  0
  5 20  1  0
  6 21  1  0
  8 22  1  0
 11 23  1  0
 12 24  1  0
 15 25  1  0
 16 26  1  0
M  END
>  <enum_code>  
B

>  <uuid>  
94339ece-ca4d-4019-a14c-b58ba2f5dc67

>  <sha256>  
813ba6512c1cc078b45b435424e0b61f270be0ff8107213ae8328c50911fa2cc

>  <std_smi>  
Oc1ccccc1/C=N/c1ccc(Cl)cc1

>  <enum_smi>  
Oc1ccccc1/C=N/c1ccc(Cl)cc1

$$$$
1346463c-88eb-407e-8e89-eafa57ac1942
     RDKit          3D

 26 27  0  0  0  0  0  0  0  0999 V2000
   -2.7421    2.1696   -0.0851 O   0  0  0  0  0  0  0  0  0  0  0  0
   -2.9667    0.9657   -0.0172 C   0  0  0  0  0  0  0  0  0  0  0  0
   -4.3697    0.4760    0.0260 C   0  0  0  0  0  0  0  0  0  0  0  0
   -4.6372   -0.8344    0.1002 C   0  0  0  0  0  0  0  0  0  0  0  0
   -3.5923   -1.8286    0.1417 C   0  0  0  0  0  0  0  0  0  0  0  0
   -2.2967   -1.4847    0.1077 C   0  0  0  0  0  0  0  0  0  0  0  0
   -1.8914   -0.0910    0.0273 C   0  0  0  0  0  0  0  0  0  0  0  0
   -0.6156    0.3383   -0.0111 C   0  0  0  0  0  0  0  0  0  0  0  0
    0.5504   -0.3927    0.0147 N   0  0  0  0  0  0  0  0  0  0  0  0
    1.8829    0.0572   -0.0254 C   0  0  0  0  0  0  0  0  0  0  0  0
    2.9123   -0.8992    0.0142 C   0  0  0  0  0  0  0  0  0  0  0  0
    4.2591   -0.5220   -0.0221 C   0  0  0  0  0  0  0  0  0  0  0  0
    4.5950    0.8248   -0.0991 C   0  0  0  0  0  0  0  0  0  0  0  0
    6.2483    1.2954   -0.1442 Cl  0  0  0  0  0  0  0  0  0  0  0  0
    3.5960    1.7913   -0.1396 C   0  0  0  0  0  0  0  0  0  0  0  0
    2.2494    1.4073   -0.1029 C   0  0  0  0  0  0  0  0  0  0  0  0
   -5.1458    1.2302   -0.0057 H   0  0  0  0  0  0  0  0  0  0  0  0
   -5.6659   -1.1823    0.1312 H   0  0  0  0  0  0  0  0  0  0  0  0
   -3.8881   -2.8724    0.2017 H   0  0  0  0  0  0  0  0  0  0  0  0
   -1.5399   -2.2596    0.1407 H   0  0  0  0  0  0  0  0  0  0  0  0
   -0.4456    1.4106   -0.0712 H   0  0  0  0  0  0  0  0  0  0  0  0
    0.4430   -1.3980    0.0705 H   0  0  0  0  0  0  0  0  0  0  0  0
    2.6742   -1.9584    0.0744 H   0  0  0  0  0  0  0  0  0  0  0  0
    5.0339   -1.2829    0.0099 H   0  0  0  0  0  0  0  0  0  0  0  0
    3.8509    2.8460   -0.1998 H   0  0  0  0  0  0  0  0  0  0  0  0
    1.5019    2.1939   -0.1367 H   0  0  0  0  0  0  0  0  0  0  0  0
  1  2  2  0
  2  3  1  0
  3  4  2  0
  4  5  1  0
  5  6  2  0
  6  7  1  0
  7  8  2  3
  8  9  1  0
  9 10  1  0
 10 11  2  0
 11 12  1  0
 12 13  2  0
 13 14  1  0
 13 15  1  0
 15 16  2  0
  7  2  1  0
 16 10  1  0
  3 17  1  0
  4 18  1  0
  5 19  1  0
  6 20  1  0
  8 21  1  0
  9 22  1  0
 11 23  1  0
 12 24  1  0
 15 25  1  0
 16 26  1  0
M  END
>  <enum_code>  
T

>  <uuid>  
1346463c-88eb-407e-8e89-eafa57ac1942

>  <sha256>  
813ba6512c1cc078b45b435424e0b61f270be0ff8107213ae8328c50911fa2cc

>  <std_smi>  
Oc1ccccc1/C=N/c1ccc(Cl)cc1

>  <enum_smi>  
O=C1C=CC=CC1=CNc1ccc(Cl)cc1

$$$$
9c5d05a2-dae4-415e-9a94-9eca990130d2
     RDKit          3D

 26 27  0  0  0  0  0  0  0  0999 V2000
    2.3415    2.3774    0.3225 O   0  0  0  0  0  0  0  0  0  0  0  0
    2.6710    1.2021    0.1620 C   0  0  0  0  0  0  0  0  0  0  0  0
    3.9145    0.9132   -0.5969 C   0  0  0  0  0  0  0  0  0  0  0  0
    4.2355   -0.3498   -0.9001 C   0  0  0  0  0  0  0  0  0  0  0  0
    3.4219   -1.4734   -0.5148 C   0  0  0  0  0  0  0  0  0  0  0  0
    2.3198   -1.3098    0.2284 C   0  0  0  0  0  0  0  0  0  0  0  0
    1.8425    0.0397    0.7043 C   0  0  0  0  0  0  0  0  0  0  0  0
    0.3943    0.1773    0.3002 C   0  0  0  0  0  0  0  0  0  0  0  0
   -0.5569   -0.2208    1.0866 N   0  0  0  0  0  0  0  0  0  0  0  0
   -1.8594   -0.0530    0.6007 C   0  0  0  0  0  0  0  0  0  0  0  0
   -2.5463   -1.1421    0.0579 C   0  0  0  0  0  0  0  0  0  0  0  0
   -3.8519   -0.9900   -0.4162 C   0  0  0  0  0  0  0  0  0  0  0  0
   -4.4743    0.2546   -0.3369 C   0  0  0  0  0  0  0  0  0  0  0  0
   -6.0815    0.4446   -0.9204 Cl  0  0  0  0  0  0  0  0  0  0  0  0
   -3.8049    1.3447    0.2162 C   0  0  0  0  0  0  0  0  0  0  0  0
   -2.4996    1.1872    0.6891 C   0  0  0  0  0  0  0  0  0  0  0  0
    4.5182    1.7610   -0.8949 H   0  0  0  0  0  0  0  0  0  0  0  0
    5.1417   -0.5603   -1.4625 H   0  0  0  0  0  0  0  0  0  0  0  0
    3.7390   -2.4648   -0.8294 H   0  0  0  0  0  0  0  0  0  0  0  0
    1.7386   -2.1796    0.5289 H   0  0  0  0  0  0  0  0  0  0  0  0
    1.9133    0.0613    1.7984 H   0  0  0  0  0  0  0  0  0  0  0  0
    0.1904    0.5919   -0.7059 H   0  0  0  0  0  0  0  0  0  0  0  0
   -2.0617   -2.1134    0.0101 H   0  0  0  0  0  0  0  0  0  0  0  0
   -4.3753   -1.8436   -0.8377 H   0  0  0  0  0  0  0  0  0  0  0  0
   -4.2909    2.3137    0.2884 H   0  0  0  0  0  0  0  0  0  0  0  0
   -1.9794    2.0319    1.1337 H   0  0  0  0  0  0  0  0  0  0  0  0
  1  2  2  0
  2  3  1  0
  3  4  2  0
  4  5  1  0
  5  6  2  0
  6  7  1  0
  7  8  1  0
  8  9  2  3
  9 10  1  0
 10 11  2  0
 11 12  1  0
 12 13  2  0
 13 14  1  0
 13 15  1  0
 15 16  2  0
  7  2  1  0
 16 10  1  0
  3 17  1  0
  4 18  1  0
  5 19  1  0
  6 20  1  0
  7 21  1  0
  8 22  1  0
 11 23  1  0
 12 24  1  0
 15 25  1  0
 16 26  1  0
M  END
>  <enum_code>  
T

>  <uuid>  
9c5d05a2-dae4-415e-9a94-9eca990130d2

>  <sha256>  
813ba6512c1cc078b45b435424e0b61f270be0ff8107213ae8328c50911fa2cc

>  <std_smi>  
Oc1ccccc1/C=N/c1ccc(Cl)cc1

>  <enum_smi>  
O=C1C=CC=CC1C=Nc1ccc(Cl)cc1

$$$$
8ded0419-7ed8-496a-94cd-f7b74d9c3874
     RDKit          3D

 26 27  0  0  0  0  0  0  0  0999 V2000
    2.0219   -0.4863   -2.0390 O   0  0  0  0  0  0  0  0  0  0  0  0
    2.5005   -0.1183   -0.9666 C   0  0  0  0  0  0  0  0  0  0  0  0
    4.0152    0.0311   -0.8375 C   0  0  0  0  0  0  0  0  0  0  0  0
    4.4865    0.4838    0.5093 C   0  0  0  0  0  0  0  0  0  0  0  0
    3.6491    0.7377    1.5199 C   0  0  0  0  0  0  0  0  0  0  0  0
    2.2253    0.5863    1.3635 C   0  0  0  0  0  0  0  0  0  0  0  0
    1.6424    0.1884    0.2189 C   0  0  0  0  0  0  0  0  0  0  0  0
    0.1610    0.0869    0.2362 C   0  0  0  0  0  0  0  0  0  0  0  0
   -0.5744   -0.2766   -0.7625 N   0  0  0  0  0  0  0  0  0  0  0  0
   -1.9556   -0.3070   -0.5398 C   0  0  0  0  0  0  0  0  0  0  0  0
   -2.7372    0.8212   -0.8044 C   0  0  0  0  0  0  0  0  0  0  0  0
   -4.1181    0.7901   -0.5939 C   0  0  0  0  0  0  0  0  0  0  0  0
   -4.7186   -0.3781   -0.1275 C   0  0  0  0  0  0  0  0  0  0  0  0
   -6.4184   -0.4192    0.1348 Cl  0  0  0  0  0  0  0  0  0  0  0  0
   -3.9519   -1.5149    0.1228 C   0  0  0  0  0  0  0  0  0  0  0  0
   -2.5714   -1.4783   -0.0895 C   0  0  0  0  0  0  0  0  0  0  0  0
    4.3440    0.7562   -1.5899 H   0  0  0  0  0  0  0  0  0  0  0  0
    4.4664   -0.9416   -1.0620 H   0  0  0  0  0  0  0  0  0  0  0  0
    5.5576    0.6047    0.6494 H   0  0  0  0  0  0  0  0  0  0  0  0
    4.0269    1.0652    2.4855 H   0  0  0  0  0  0  0  0  0  0  0  0
    1.6355    0.8187    2.2477 H   0  0  0  0  0  0  0  0  0  0  0  0
   -0.3150    0.3523    1.2003 H   0  0  0  0  0  0  0  0  0  0  0  0
   -2.2661    1.7229   -1.1865 H   0  0  0  0  0  0  0  0  0  0  0  0
   -4.7153    1.6730   -0.8036 H   0  0  0  0  0  0  0  0  0  0  0  0
   -4.4193   -2.4311    0.4725 H   0  0  0  0  0  0  0  0  0  0  0  0
   -1.9711   -2.3671    0.0853 H   0  0  0  0  0  0  0  0  0  0  0  0
  1  2  2  0
  2  3  1  0
  3  4  1  0
  4  5  2  0
  5  6  1  0
  6  7  2  0
  7  8  1  0
  8  9  2  3
  9 10  1  0
 10 11  2  0
 11 12  1  0
 12 13  2  0
 13 14  1  0
 13 15  1  0
 15 16  2  0
  7  2  1  0
 16 10  1  0
  3 17  1  0
  3 18  1  0
  4 19  1  0
  5 20  1  0
  6 21  1  0
  8 22  1  0
 11 23  1  0
 12 24  1  0
 15 25  1  0
 16 26  1  0
M  END
>  <enum_code>  
T

>  <uuid>  
8ded0419-7ed8-496a-94cd-f7b74d9c3874

>  <sha256>  
813ba6512c1cc078b45b435424e0b61f270be0ff8107213ae8328c50911fa2cc

>  <std_smi>  
Oc1ccccc1/C=N/c1ccc(Cl)cc1

>  <enum_smi>  
O=C1CC=CC=C1C=Nc1ccc(Cl)cc1

$$$$
5e2a379d-9aab-42b2-9ad7-eb44cb444a87
     RDKit          3D

 26 27  0  0  0  0  0  0  0  0999 V2000
   -2.2116   -0.2795   -2.3258 O   0  0  0  0  0  0  0  0  0  0  0  0
   -2.6360   -0.2716   -1.0264 C   0  0  0  0  0  0  0  0  0  0  0  0
   -4.0140   -0.3711   -0.8365 C   0  0  0  0  0  0  0  0  0  0  0  0
   -4.5415   -0.4109    0.4546 C   0  0  0  0  0  0  0  0  0  0  0  0
   -3.6912   -0.3464    1.5575 C   0  0  0  0  0  0  0  0  0  0  0  0
   -2.3124   -0.2291    1.3699 C   0  0  0  0  0  0  0  0  0  0  0  0
   -1.7785   -0.1811    0.0753 C   0  0  0  0  0  0  0  0  0  0  0  0
   -0.3241    0.0097   -0.0987 C   0  0  0  0  0  0  0  0  0  0  0  0
    0.5051   -0.0784    0.8947 N   0  0  0  0  0  0  0  0  0  0  0  0
    1.8556    0.1315    0.5901 C   0  0  0  0  0  0  0  0  0  0  0  0
    2.3781    1.4269    0.5276 C   0  0  0  0  0  0  0  0  0  0  0  0
    3.7296    1.6311    0.2379 C   0  0  0  0  0  0  0  0  0  0  0  0
    4.5619    0.5343    0.0209 C   0  0  0  0  0  0  0  0  0  0  0  0
    6.2263    0.7821   -0.3366 Cl  0  0  0  0  0  0  0  0  0  0  0  0
    4.0556   -0.7621    0.0964 C   0  0  0  0  0  0  0  0  0  0  0  0
    2.7033   -0.9606    0.3862 C   0  0  0  0  0  0  0  0  0  0  0  0
   -1.3533   -0.7318   -2.3773 H   0  0  0  0  0  0  0  0  0  0  0  0
   -4.6777   -0.4287   -1.6956 H   0  0  0  0  0  0  0  0  0  0  0  0
   -5.6158   -0.4948    0.5994 H   0  0  0  0  0  0  0  0  0  0  0  0
   -4.1007   -0.3782    2.5643 H   0  0  0  0  0  0  0  0  0  0  0  0
   -1.6598   -0.1614    2.2381 H   0  0  0  0  0  0  0  0  0  0  0  0
    0.0372    0.2375   -1.1179 H   0  0  0  0  0  0  0  0  0  0  0  0
    1.7286    2.2784    0.7126 H   0  0  0  0  0  0  0  0  0  0  0  0
    4.1241    2.6423    0.1905 H   0  0  0  0  0  0  0  0  0  0  0  0
    4.7047   -1.6189   -0.0610 H   0  0  0  0  0  0  0  0  0  0  0  0
    2.3064   -1.9694    0.4613 H   0  0  0  0  0  0  0  0  0  0  0  0
  1  2  1  0
  2  3  2  0
  3  4  1  0
  4  5  2  0
  5  6  1  0
  6  7  2  0
  7  8  1  0
  8  9  2  3
  9 10  1  0
 10 11  2  0
 11 12  1  0
 12 13  2  0
 13 14  1  0
 13 15  1  0
 15 16  2  0
  7  2  1  0
 16 10  1  0
  1 17  1  0
  3 18  1  0
  4 19  1  0
  5 20  1  0
  6 21  1  0
  8 22  1  0
 11 23  1  0
 12 24  1  0
 15 25  1  0
 16 26  1  0
M  END
>  <enum_code>  
T

>  <uuid>  
5e2a379d-9aab-42b2-9ad7-eb44cb444a87

>  <sha256>  
813ba6512c1cc078b45b435424e0b61f270be0ff8107213ae8328c50911fa2cc

>  <std_smi>  
Oc1ccccc1/C=N/c1ccc(Cl)cc1

>  <enum_smi>  
Oc1ccccc1C=Nc1ccc(Cl)cc1

$$$$
2508cabb-b90a-46d8-b9be-1e9574bd8ea4
     RDKit          3D

 25 26  0  0  0  0  0  0  0  0999 V2000
    2.0329   -2.0795   -1.7612 O   0  5  0  0  0  1  0  0  0  0  0  0
    2.5591   -1.1724   -1.0288 C   0  0  0  0  0  0  0  0  0  0  0  0
    3.9621   -1.0324   -0.9500 C   0  0  0  0  0  0  0  0  0  0  0  0
    4.6076   -0.0625   -0.1690 C   0  0  0  0  0  0  0  0  0  0  0  0
    3.8612    0.8300    0.5844 C   0  0  0  0  0  0  0  0  0  0  0  0
    2.4747    0.7449    0.5503 C   0  0  0  0  0  0  0  0  0  0  0  0
    1.8375   -0.2346   -0.2388 C   0  0  0  0  0  0  0  0  0  0  0  0
    0.3496   -0.2683   -0.2280 C   0  0  0  0  0  0  0  0  0  0  0  0
   -0.3698    0.5630    0.4743 N   0  0  0  0  0  0  0  0  0  0  0  0
   -1.7550    0.3950    0.3720 C   0  0  0  0  0  0  0  0  0  0  0  0
   -2.4317   -0.4385    1.2666 C   0  0  0  0  0  0  0  0  0  0  0  0
   -3.8182   -0.5876    1.1846 C   0  0  0  0  0  0  0  0  0  0  0  0
   -4.5289    0.1080    0.2077 C   0  0  0  0  0  0  0  0  0  0  0  0
   -6.2388   -0.0686    0.1067 Cl  0  0  0  0  0  0  0  0  0  0  0  0
   -3.8666    0.9497   -0.6846 C   0  0  0  0  0  0  0  0  0  0  0  0
   -2.4799    1.0941   -0.5969 C   0  0  0  0  0  0  0  0  0  0  0  0
    4.5772   -1.7201   -1.5315 H   0  0  0  0  0  0  0  0  0  0  0  0
    5.6913   -0.0198   -0.1619 H   0  0  0  0  0  0  0  0  0  0  0  0
    4.3492    1.5836    1.1916 H   0  0  0  0  0  0  0  0  0  0  0  0
    1.8800    1.4388    1.1364 H   0  0  0  0  0  0  0  0  0  0  0  0
   -0.1347   -1.0423   -0.8521 H   0  0  0  0  0  0  0  0  0  0  0  0
   -1.8646   -0.9746    2.0228 H   0  0  0  0  0  0  0  0  0  0  0  0
   -4.3288   -1.2452    1.8811 H   0  0  0  0  0  0  0  0  0  0  0  0
   -4.4150    1.4927   -1.4479 H   0  0  0  0  0  0  0  0  0  0  0  0
   -1.9502    1.7465   -1.2859 H   0  0  0  0  0  0  0  0  0  0  0  0
  1  2  1  0
  2  3  2  0
  3  4  1  0
  4  5  2  0
  5  6  1  0
  6  7  2  0
  7  8  1  0
  8  9  2  0
  9 10  1  0
 10 11  2  0
 11 12  1  0
 12 13  2  0
 13 14  1  0
 13 15  1  0
 15 16  2  0
  7  2  1  0
 16 10  1  0
  3 17  1  0
  4 18  1  0
  5 19  1  0
  6 20  1  0
  8 21  1  0
 11 22  1  0
 12 23  1  0
 15 24  1  0
 16 25  1  0
M  CHG  1   1  -1
M  END
>  <enum_code>  
M

>  <uuid>  
2508cabb-b90a-46d8-b9be-1e9574bd8ea4

>  <sha256>  
813ba6512c1cc078b45b435424e0b61f270be0ff8107213ae8328c50911fa2cc

>  <std_smi>  
Oc1ccccc1/C=N/c1ccc(Cl)cc1

>  <enum_smi>  
[O-]c1ccccc1/C=N/c1ccc(Cl)cc1

$$$$
eedbca9d-7575-4338-82c9-fc99e2375980
     RDKit          3D

 24 25  0  0  0  0  0  0  0  0999 V2000
    4.8902    0.6510    0.8415 N   0  0  0  0  0  0  0  0  0  0  0  0
    3.5631    0.4359    0.6443 C   0  0  0  0  0  0  0  0  0  0  0  0
    2.7345    1.4084    0.4258 N   0  0  0  0  0  0  0  0  0  0  0  0
    1.3543    1.1864    0.3329 N   0  0  0  0  0  0  0  0  0  0  0  0
    0.9114    0.0547   -0.1284 C   0  0  0  0  0  0  0  0  0  0  0  0
   -0.5647   -0.1215   -0.2676 C   0  0  0  0  0  0  0  0  0  0  0  0
   -1.1098   -0.9334   -1.2719 C   0  0  0  0  0  0  0  0  0  0  0  0
   -2.4955   -1.0730   -1.3905 C   0  0  0  0  0  0  0  0  0  0  0  0
   -3.3456   -0.3999   -0.5126 C   0  0  0  0  0  0  0  0  0  0  0  0
   -2.8004    0.4201    0.4846 C   0  0  0  0  0  0  0  0  0  0  0  0
   -3.6947    1.1291    1.4077 N   0  3  0  0  0  4  0  0  0  0  0  0
   -3.1844    1.7080    2.3763 O   0  0  0  0  0  0  0  0  0  0  0  0
   -4.9100    1.0986    1.1663 O   0  5  0  0  0  1  0  0  0  0  0  0
   -1.4134    0.5666    0.6104 C   0  0  0  0  0  0  0  0  0  0  0  0
    1.8129   -1.0834   -0.5358 C   0  0  0  0  0  0  0  0  0  0  0  0
    3.1111   -1.2426    0.7052 S   0  0  0  0  0  0  0  0  0  0  0  0
    5.0841    1.6052    1.1236 H   0  0  0  0  0  0  0  0  0  0  0  0
    5.3352   -0.0477    1.4228 H   0  0  0  0  0  0  0  0  0  0  0  0
   -0.4757   -1.4487   -1.9893 H   0  0  0  0  0  0  0  0  0  0  0  0
   -2.9138   -1.7016   -2.1745 H   0  0  0  0  0  0  0  0  0  0  0  0
   -4.4224   -0.5191   -0.6199 H   0  0  0  0  0  0  0  0  0  0  0  0
   -0.9882    1.2083    1.3815 H   0  0  0  0  0  0  0  0  0  0  0  0
    2.2462   -0.8682   -1.5176 H   0  0  0  0  0  0  0  0  0  0  0  0
    1.2757   -2.0332   -0.5836 H   0  0  0  0  0  0  0  0  0  0  0  0
  1  2  1  0
  2  3  2  0
  3  4  1  0
  4  5  2  0
  5  6  1  0
  6  7  2  0
  7  8  1  0
  8  9  2  0
  9 10  1  0
 10 11  1  0
 11 12  2  0
 11 13  1  0
 10 14  2  0
  5 15  1  0
 15 16  1  0
 16  2  1  0
 14  6  1  0
  1 17  1  0
  1 18  1  0
  7 19  1  0
  8 20  1  0
  9 21  1  0
 14 22  1  0
 15 23  1  0
 15 24  1  0
M  CHG  2  11   1  13  -1
M  END
>  <enum_code>  
B

>  <uuid>  
eedbca9d-7575-4338-82c9-fc99e2375980

>  <sha256>  
faad9480fd3d245006c7010a0e3f3f189aeed6552d5cd6bb949d5881145e517a

>  <std_smi>  
NC1=NN=C(c2cccc([N+](=O)[O-])c2)CS1

>  <enum_smi>  
NC1=NN=C(c2cccc([N+](=O)[O-])c2)CS1

$$$$
1cabe3a2-ca35-4035-baef-7e853967a7d0
     RDKit          3D

 24 25  0  0  0  0  0  0  0  0999 V2000
    4.8568   -0.6990    1.2617 N   0  0  0  0  0  0  0  0  0  0  0  0
    3.6737   -0.4312    0.8287 C   0  0  0  0  0  0  0  0  0  0  0  0
    2.6381   -0.0631    1.6388 N   0  0  0  0  0  0  0  0  0  0  0  0
    1.3058   -0.0122    1.3463 N   0  0  0  0  0  0  0  0  0  0  0  0
    0.9795    0.2441    0.1115 C   0  0  0  0  0  0  0  0  0  0  0  0
   -0.4723    0.2874   -0.2384 C   0  0  0  0  0  0  0  0  0  0  0  0
   -0.9581    1.1426   -1.2368 C   0  0  0  0  0  0  0  0  0  0  0  0
   -2.3231    1.1717   -1.5369 C   0  0  0  0  0  0  0  0  0  0  0  0
   -3.2123    0.3535   -0.8393 C   0  0  0  0  0  0  0  0  0  0  0  0
   -2.7279   -0.4932    0.1667 C   0  0  0  0  0  0  0  0  0  0  0  0
   -3.6632   -1.3515    0.9046 N   0  3  0  0  0  4  0  0  0  0  0  0
   -4.8716   -1.2290    0.6586 O   0  0  0  0  0  0  0  0  0  0  0  0
   -3.1897   -2.1491    1.7253 O   0  5  0  0  0  1  0  0  0  0  0  0
   -1.3617   -0.5289    0.4738 C   0  0  0  0  0  0  0  0  0  0  0  0
    1.9919    0.5544   -0.9755 C   0  0  0  0  0  0  0  0  0  0  0  0
    3.4039   -0.5673   -0.8844 S   0  0  0  0  0  0  0  0  0  0  0  0
    5.4181   -0.9543    0.4402 H   0  0  0  0  0  0  0  0  0  0  0  0
    2.8741   -0.1679    2.6245 H   0  0  0  0  0  0  0  0  0  0  0  0
   -0.2968    1.8128   -1.7806 H   0  0  0  0  0  0  0  0  0  0  0  0
   -2.6958    1.8396   -2.3115 H   0  0  0  0  0  0  0  0  0  0  0  0
   -4.2723    0.3906   -1.0855 H   0  0  0  0  0  0  0  0  0  0  0  0
   -0.9843   -1.1850    1.2572 H   0  0  0  0  0  0  0  0  0  0  0  0
    1.5547    0.4473   -1.9710 H   0  0  0  0  0  0  0  0  0  0  0  0
    2.3326    1.5876   -0.8520 H   0  0  0  0  0  0  0  0  0  0  0  0
  1  2  2  3
  2  3  1  0
  3  4  1  0
  4  5  2  0
  5  6  1  0
  6  7  2  0
  7  8  1  0
  8  9  2  0
  9 10  1  0
 10 11  1  0
 11 12  2  0
 11 13  1  0
 10 14  2  0
  5 15  1  0
 15 16  1  0
 16  2  1  0
 14  6  1  0
  1 17  1  0
  3 18  1  0
  7 19  1  0
  8 20  1  0
  9 21  1  0
 14 22  1  0
 15 23  1  0
 15 24  1  0
M  CHG  2  11   1  13  -1
M  END
>  <enum_code>  
T

>  <uuid>  
1cabe3a2-ca35-4035-baef-7e853967a7d0

>  <sha256>  
faad9480fd3d245006c7010a0e3f3f189aeed6552d5cd6bb949d5881145e517a

>  <std_smi>  
NC1=NN=C(c2cccc([N+](=O)[O-])c2)CS1

>  <enum_smi>  
N=C1NN=C(c2cccc([N+](=O)[O-])c2)CS1

$$$$
1c48cfe9-5785-48bf-8ad9-e7c94af8f072
     RDKit          3D

 24 25  0  0  0  0  0  0  0  0999 V2000
    4.8878    0.5786   -1.5260 N   0  0  0  0  0  0  0  0  0  0  0  0
    3.7364    0.2334   -1.0536 C   0  0  0  0  0  0  0  0  0  0  0  0
    2.6126    0.1938   -1.8366 N   0  0  0  0  0  0  0  0  0  0  0  0
    1.3393    0.2127   -1.3250 N   0  0  0  0  0  0  0  0  0  0  0  0
    1.0374   -0.1632   -0.0266 C   0  0  0  0  0  0  0  0  0  0  0  0
   -0.3923   -0.3301    0.3007 C   0  0  0  0  0  0  0  0  0  0  0  0
   -0.8925   -1.5703    0.7275 C   0  0  0  0  0  0  0  0  0  0  0  0
   -2.2474   -1.7278    1.0312 C   0  0  0  0  0  0  0  0  0  0  0  0
   -3.1212   -0.6478    0.9088 C   0  0  0  0  0  0  0  0  0  0  0  0
   -2.6289    0.5909    0.4776 C   0  0  0  0  0  0  0  0  0  0  0  0
   -3.5461    1.7288    0.3418 N   0  3  0  0  0  4  0  0  0  0  0  0
   -4.7165    1.5734    0.7178 O   0  0  0  0  0  0  0  0  0  0  0  0
   -3.0968    2.7756   -0.1454 O   0  5  0  0  0  1  0  0  0  0  0  0
   -1.2706    0.7550    0.1714 C   0  0  0  0  0  0  0  0  0  0  0  0
    1.9602   -0.3607    0.9318 C   0  0  0  0  0  0  0  0  0  0  0  0
    3.6643   -0.1888    0.6490 S   0  0  0  0  0  0  0  0  0  0  0  0
    5.5496    0.5243   -0.7425 H   0  0  0  0  0  0  0  0  0  0  0  0
    2.7678    0.6625   -2.7272 H   0  0  0  0  0  0  0  0  0  0  0  0
    0.5961   -0.0145   -1.9889 H   0  0  0  0  0  0  0  0  0  0  0  0
   -0.2276   -2.4282    0.8200 H   0  0  0  0  0  0  0  0  0  0  0  0
   -2.6206   -2.6952    1.3615 H   0  0  0  0  0  0  0  0  0  0  0  0
   -4.1738   -0.7866    1.1487 H   0  0  0  0  0  0  0  0  0  0  0  0
   -0.8856    1.7201   -0.1561 H   0  0  0  0  0  0  0  0  0  0  0  0
    1.6683   -0.6360    1.9400 H   0  0  0  0  0  0  0  0  0  0  0  0
  1  2  2  3
  2  3  1  0
  3  4  1  0
  4  5  1  0
  5  6  1  0
  6  7  2  0
  7  8  1  0
  8  9  2  0
  9 10  1  0
 10 11  1  0
 11 12  2  0
 11 13  1  0
 10 14  2  0
  5 15  2  0
 15 16  1  0
 16  2  1  0
 14  6  1  0
  1 17  1  0
  3 18  1  0
  4 19  1  0
  7 20  1  0
  8 21  1  0
  9 22  1  0
 14 23  1  0
 15 24  1  0
M  CHG  2  11   1  13  -1
M  END
>  <enum_code>  
T

>  <uuid>  
1c48cfe9-5785-48bf-8ad9-e7c94af8f072

>  <sha256>  
faad9480fd3d245006c7010a0e3f3f189aeed6552d5cd6bb949d5881145e517a

>  <std_smi>  
NC1=NN=C(c2cccc([N+](=O)[O-])c2)CS1

>  <enum_smi>  
N=C1NNC(c2cccc([N+](=O)[O-])c2)=CS1

$$$$
d573fc8e-6c39-43da-b319-27886af9b930
     RDKit          3D

 24 25  0  0  0  0  0  0  0  0999 V2000
    5.0606   -0.1651   -0.4224 N   0  0  0  0  0  0  0  0  0  0  0  0
    3.7100   -0.0095   -0.3432 C   0  0  0  0  0  0  0  0  0  0  0  0
    2.9153   -0.9992   -0.6303 N   0  0  0  0  0  0  0  0  0  0  0  0
    1.5708   -0.8361   -0.5255 N   0  0  0  0  0  0  0  0  0  0  0  0
    0.9016    0.3230   -0.2042 C   0  0  0  0  0  0  0  0  0  0  0  0
   -0.5714    0.2675   -0.2254 C   0  0  0  0  0  0  0  0  0  0  0  0
   -1.2999    0.9924   -1.1808 C   0  0  0  0  0  0  0  0  0  0  0  0
   -2.6959    0.9391   -1.2036 C   0  0  0  0  0  0  0  0  0  0  0  0
   -3.3804    0.1588   -0.2719 C   0  0  0  0  0  0  0  0  0  0  0  0
   -2.6569   -0.5699    0.6818 C   0  0  0  0  0  0  0  0  0  0  0  0
   -3.3742   -1.3932    1.6629 N   0  3  0  0  0  4  0  0  0  0  0  0
   -2.6993   -2.0566    2.4626 O   0  0  0  0  0  0  0  0  0  0  0  0
   -4.6130   -1.3774    1.6328 O   0  5  0  0  0  1  0  0  0  0  0  0
   -1.2562   -0.5212    0.7091 C   0  0  0  0  0  0  0  0  0  0  0  0
    1.5047    1.4704    0.1388 C   0  0  0  0  0  0  0  0  0  0  0  0
    3.2257    1.5901    0.1948 S   0  0  0  0  0  0  0  0  0  0  0  0
    5.3356   -1.1393   -0.3997 H   0  0  0  0  0  0  0  0  0  0  0  0
    5.5807    0.4308    0.2080 H   0  0  0  0  0  0  0  0  0  0  0  0
    0.9930   -1.6093   -0.8525 H   0  0  0  0  0  0  0  0  0  0  0  0
   -0.7797    1.5989   -1.9212 H   0  0  0  0  0  0  0  0  0  0  0  0
   -3.2482    1.5050   -1.9510 H   0  0  0  0  0  0  0  0  0  0  0  0
   -4.4679    0.1275   -0.3030 H   0  0  0  0  0  0  0  0  0  0  0  0
   -0.6912   -1.0827    1.4522 H   0  0  0  0  0  0  0  0  0  0  0  0
    0.9358    2.3561    0.3991 H   0  0  0  0  0  0  0  0  0  0  0  0
  1  2  1  0
  2  3  2  0
  3  4  1  0
  4  5  1  0
  5  6  1  0
  6  7  2  0
  7  8  1  0
  8  9  2  0
  9 10  1  0
 10 11  1  0
 11 12  2  0
 11 13  1  0
 10 14  2  0
  5 15  2  0
 15 16  1  0
 16  2  1  0
 14  6  1  0
  1 17  1  0
  1 18  1  0
  4 19  1  0
  7 20  1  0
  8 21  1  0
  9 22  1  0
 14 23  1  0
 15 24  1  0
M  CHG  2  11   1  13  -1
M  END
>  <enum_code>  
T

>  <uuid>  
d573fc8e-6c39-43da-b319-27886af9b930

>  <sha256>  
faad9480fd3d245006c7010a0e3f3f189aeed6552d5cd6bb949d5881145e517a

>  <std_smi>  
NC1=NN=C(c2cccc([N+](=O)[O-])c2)CS1

>  <enum_smi>  
NC1=NNC(c2cccc([N+](=O)[O-])c2)=CS1

$$$$
527d13bc-2178-44dc-9d06-d213ef2b6026
     RDKit          3D

 33 34  0  0  0  0  0  0  0  0999 V2000
    5.0231    0.2220    0.4384 C   0  0  0  0  0  0  0  0  0  0  0  0
    3.5311    0.2525    0.2862 C   0  0  0  0  0  0  0  0  0  0  0  0
    2.9449    0.8470   -0.8371 C   0  0  0  0  0  0  0  0  0  0  0  0
    1.5562    0.8510   -0.9960 C   0  0  0  0  0  0  0  0  0  0  0  0
    0.7387    0.2449   -0.0361 C   0  0  0  0  0  0  0  0  0  0  0  0
   -0.6785    0.2469   -0.1940 N   0  0  0  0  0  0  0  0  0  0  0  0
   -1.4597    1.3403   -0.5608 C   0  0  0  0  0  0  0  0  0  0  0  0
   -0.9422    2.7211   -0.7814 C   0  0  0  0  0  0  0  0  0  0  0  0
   -2.7804    0.9380   -0.5763 C   0  0  0  0  0  0  0  0  0  0  0  0
   -2.8401   -0.4270   -0.2103 C   0  0  0  0  0  0  0  0  0  0  0  0
   -4.0806   -1.2500   -0.1075 C   0  0  0  0  0  0  0  0  0  0  0  0
   -4.2145   -1.8320    1.1842 O   0  0  0  0  0  0  0  0  0  0  0  0
   -1.5295   -0.8418   -0.0028 C   0  0  0  0  0  0  0  0  0  0  0  0
   -1.0616   -2.2273    0.3054 C   0  0  0  0  0  0  0  0  0  0  0  0
    1.3202   -0.3648    1.0810 C   0  0  0  0  0  0  0  0  0  0  0  0
    2.7090   -0.3629    1.2371 C   0  0  0  0  0  0  0  0  0  0  0  0
    5.4808    1.1041   -0.0215 H   0  0  0  0  0  0  0  0  0  0  0  0
    5.4293   -0.6761   -0.0369 H   0  0  0  0  0  0  0  0  0  0  0  0
    5.3079    0.2230    1.4958 H   0  0  0  0  0  0  0  0  0  0  0  0
    3.5674    1.3062   -1.6020 H   0  0  0  0  0  0  0  0  0  0  0  0
    1.1367    1.2896   -1.8967 H   0  0  0  0  0  0  0  0  0  0  0  0
   -0.5596    2.8343   -1.7998 H   0  0  0  0  0  0  0  0  0  0  0  0
   -0.1561    2.9807   -0.0660 H   0  0  0  0  0  0  0  0  0  0  0  0
   -1.7461    3.4545   -0.6517 H   0  0  0  0  0  0  0  0  0  0  0  0
   -3.6228    1.5797   -0.8036 H   0  0  0  0  0  0  0  0  0  0  0  0
   -4.0586   -2.0540   -0.8508 H   0  0  0  0  0  0  0  0  0  0  0  0
   -4.9672   -0.6350   -0.2959 H   0  0  0  0  0  0  0  0  0  0  0  0
   -5.0505   -2.3246    1.1778 H   0  0  0  0  0  0  0  0  0  0  0  0
   -1.7858   -2.9691   -0.0481 H   0  0  0  0  0  0  0  0  0  0  0  0
   -0.9500   -2.3649    1.3850 H   0  0  0  0  0  0  0  0  0  0  0  0
   -0.1138   -2.4584   -0.1899 H   0  0  0  0  0  0  0  0  0  0  0  0
    0.7082   -0.8098    1.8609 H   0  0  0  0  0  0  0  0  0  0  0  0
    3.1441   -0.8383    2.1136 H   0  0  0  0  0  0  0  0  0  0  0  0
  1  2  1  0
  2  3  2  0
  3  4  1  0
  4  5  2  0
  5  6  1  0
  6  7  1  0
  7  8  1  0
  7  9  2  0
  9 10  1  0
 10 11  1  0
 11 12  1  0
 10 13  2  0
 13 14  1  0
  5 15  1  0
 15 16  2  0
 16  2  1  0
 13  6  1  0
  1 17  1  0
  1 18  1  0
  1 19  1  0
  3 20  1  0
  4 21  1  0
  8 22  1  0
  8 23  1  0
  8 24  1  0
  9 25  1  0
 11 26  1  0
 11 27  1  0
 12 28  1  0
 14 29  1  0
 14 30  1  0
 14 31  1  0
 15 32  1  0
 16 33  1  0
M  END
>  <enum_code>  
B

>  <uuid>  
527d13bc-2178-44dc-9d06-d213ef2b6026

>  <sha256>  
63d37b5daf469ce317808cefff4d5c8c6b0a584e91ee78ccac3fe1a1dcfd50d4

>  <std_smi>  
Cc1ccc(-n2c(C)cc(CO)c2C)cc1

>  <enum_smi>  
Cc1ccc(-n2c(C)cc(CO)c2C)cc1

$$$$
b3b77060-5963-4043-aafc-f21cbd7ca723
     RDKit          3D

 35 36  0  0  0  0  0  0  0  0999 V2000
   -3.2857    1.5931    1.9042 C   0  0  0  0  0  0  0  0  0  0  0  0
   -2.8374    0.1976    1.4977 C   0  0  0  0  0  0  0  0  0  0  0  0
   -1.6640    0.1955    0.5121 C   0  0  0  0  0  0  0  0  0  0  0  0
   -2.0613    0.6648   -0.8959 C   0  0  0  0  0  0  0  0  0  0  0  0
   -0.9418    0.7751   -1.8586 N   0  0  0  0  0  0  0  0  0  0  0  0
   -1.4584    1.3298   -3.1171 C   0  0  0  0  0  0  0  0  0  0  0  0
   -0.2981   -0.5319   -2.1302 C   0  0  0  0  0  0  0  0  0  0  0  0
    0.8528   -0.7990   -1.2114 C   0  0  0  0  0  0  0  0  0  0  0  0
    1.2921   -1.9713   -0.7961 N   0  0  0  0  0  0  0  0  0  0  0  0
    2.3483   -1.6932    0.0384 C   0  0  0  0  0  0  0  0  0  0  0  0
    3.1707   -2.5652    0.7668 C   0  0  0  0  0  0  0  0  0  0  0  0
    4.1867   -2.0225    1.5641 C   0  0  0  0  0  0  0  0  0  0  0  0
    4.3812   -0.6401    1.6319 C   0  0  0  0  0  0  0  0  0  0  0  0
    3.5706    0.2456    0.9115 C   0  0  0  0  0  0  0  0  0  0  0  0
    2.5670   -0.3226    0.1260 C   0  0  0  0  0  0  0  0  0  0  0  0
    1.6077    0.2213   -0.6845 N   0  0  0  0  0  0  0  0  0  0  0  0
   -4.0663    1.5280    2.6684 H   0  0  0  0  0  0  0  0  0  0  0  0
   -2.4510    2.1663    2.3219 H   0  0  0  0  0  0  0  0  0  0  0  0
   -3.6979    2.1493    1.0569 H   0  0  0  0  0  0  0  0  0  0  0  0
   -3.6850   -0.3514    1.0713 H   0  0  0  0  0  0  0  0  0  0  0  0
   -2.5309   -0.3421    2.4021 H   0  0  0  0  0  0  0  0  0  0  0  0
   -1.2894   -0.8332    0.4630 H   0  0  0  0  0  0  0  0  0  0  0  0
   -0.8559    0.8214    0.9082 H   0  0  0  0  0  0  0  0  0  0  0  0
   -2.5141    1.6583   -0.8016 H   0  0  0  0  0  0  0  0  0  0  0  0
   -2.8400   -0.0013   -1.2906 H   0  0  0  0  0  0  0  0  0  0  0  0
   -2.2002    0.6718   -3.5833 H   0  0  0  0  0  0  0  0  0  0  0  0
   -0.6413    1.4937   -3.8282 H   0  0  0  0  0  0  0  0  0  0  0  0
   -1.9200    2.3094   -2.9491 H   0  0  0  0  0  0  0  0  0  0  0  0
    0.1272   -0.5447   -3.1437 H   0  0  0  0  0  0  0  0  0  0  0  0
   -1.0225   -1.3548   -2.0918 H   0  0  0  0  0  0  0  0  0  0  0  0
    3.0112   -3.6365    0.7123 H   0  0  0  0  0  0  0  0  0  0  0  0
    4.8298   -2.6874    2.1366 H   0  0  0  0  0  0  0  0  0  0  0  0
    5.1764   -0.2435    2.2600 H   0  0  0  0  0  0  0  0  0  0  0  0
    3.7193    1.3184    0.9647 H   0  0  0  0  0  0  0  0  0  0  0  0
    1.4201    1.2013   -0.8389 H   0  0  0  0  0  0  0  0  0  0  0  0
  1  2  1  0
  2  3  1  0
  3  4  1  0
  4  5  1  0
  5  6  1  0
  5  7  1  0
  7  8  1  0
  8  9  2  0
  9 10  1  0
 10 11  2  0
 11 12  1  0
 12 13  2  0
 13 14  1  0
 14 15  2  0
 15 16  1  0
 16  8  1  0
 15 10  1  0
  1 17  1  0
  1 18  1  0
  1 19  1  0
  2 20  1  0
  2 21  1  0
  3 22  1  0
  3 23  1  0
  4 24  1  0
  4 25  1  0
  6 26  1  0
  6 27  1  0
  6 28  1  0
  7 29  1  0
  7 30  1  0
 11 31  1  0
 12 32  1  0
 13 33  1  0
 14 34  1  0
 16 35  1  0
M  END
>  <enum_code>  
B

>  <uuid>  
b3b77060-5963-4043-aafc-f21cbd7ca723

>  <sha256>  
6a33d1ae81811c4c560d91d11e3d923a6f2cbbca3c5192f5a65c4f1c1941a1a4

>  <std_smi>  
CCCCN(C)Cc1nc2ccccc2[nH]1

>  <enum_smi>  
CCCCN(C)Cc1nc2ccccc2[nH]1

$$$$
2e442448-7468-43fd-b98c-6d1e555f7a9c
     RDKit          3D

 35 36  0  0  0  0  0  0  0  0999 V2000
   -4.7483    0.1393   -2.1375 C   0  0  0  0  0  0  0  0  0  0  0  0
   -4.6772   -0.4682   -0.7451 C   0  0  0  0  0  0  0  0  0  0  0  0
   -3.2474   -0.6626   -0.2367 C   0  0  0  0  0  0  0  0  0  0  0  0
   -2.4982    0.6555   -0.0206 C   0  0  0  0  0  0  0  0  0  0  0  0
   -1.1753    0.4141    0.5805 N   0  0  0  0  0  0  0  0  0  0  0  0
   -1.1688    0.2580    2.0353 C   0  0  0  0  0  0  0  0  0  0  0  0
   -0.0846    0.0661   -0.2173 C   0  0  0  0  0  0  0  0  0  0  0  0
    1.2120   -0.1636    0.0670 C   0  0  0  0  0  0  0  0  0  0  0  0
    2.1668   -0.5024   -0.9034 N   0  0  0  0  0  0  0  0  0  0  0  0
    3.4199   -0.2842   -0.2980 C   0  0  0  0  0  0  0  0  0  0  0  0
    4.6851   -0.3955   -0.8247 C   0  0  0  0  0  0  0  0  0  0  0  0
    5.7610   -0.1671    0.0406 C   0  0  0  0  0  0  0  0  0  0  0  0
    5.5498    0.1444    1.4011 C   0  0  0  0  0  0  0  0  0  0  0  0
    4.2576    0.2331    1.9302 C   0  0  0  0  0  0  0  0  0  0  0  0
    3.2091    0.0201    1.0661 C   0  0  0  0  0  0  0  0  0  0  0  0
    1.8187    0.0063    1.3218 N   0  0  0  0  0  0  0  0  0  0  0  0
   -4.1659   -0.4492   -2.8534 H   0  0  0  0  0  0  0  0  0  0  0  0
   -4.3731    1.1668   -2.1468 H   0  0  0  0  0  0  0  0  0  0  0  0
   -5.7865    0.1632   -2.4839 H   0  0  0  0  0  0  0  0  0  0  0  0
   -5.1739   -1.4455   -0.7661 H   0  0  0  0  0  0  0  0  0  0  0  0
   -5.2408    0.1583   -0.0440 H   0  0  0  0  0  0  0  0  0  0  0  0
   -2.6919   -1.2987   -0.9369 H   0  0  0  0  0  0  0  0  0  0  0  0
   -3.2929   -1.2158    0.7097 H   0  0  0  0  0  0  0  0  0  0  0  0
   -3.0827    1.3231    0.6247 H   0  0  0  0  0  0  0  0  0  0  0  0
   -2.3721    1.1866   -0.9715 H   0  0  0  0  0  0  0  0  0  0  0  0
   -0.7528   -0.7130    2.3243 H   0  0  0  0  0  0  0  0  0  0  0  0
   -0.5847    1.0580    2.5000 H   0  0  0  0  0  0  0  0  0  0  0  0
   -2.1791    0.3128    2.4561 H   0  0  0  0  0  0  0  0  0  0  0  0
   -0.3830   -0.0386   -1.2593 H   0  0  0  0  0  0  0  0  0  0  0  0
    2.0180   -0.1463   -1.8354 H   0  0  0  0  0  0  0  0  0  0  0  0
    4.8457   -0.6577   -1.8629 H   0  0  0  0  0  0  0  0  0  0  0  0
    6.7783   -0.2435   -0.3370 H   0  0  0  0  0  0  0  0  0  0  0  0
    6.4075    0.3042    2.0509 H   0  0  0  0  0  0  0  0  0  0  0  0
    4.0926    0.4482    2.9785 H   0  0  0  0  0  0  0  0  0  0  0  0
    1.4572    0.7937    1.8408 H   0  0  0  0  0  0  0  0  0  0  0  0
  1  2  1  0
  2  3  1  0
  3  4  1  0
  4  5  1  0
  5  6  1  0
  5  7  1  0
  7  8  2  3
  8  9  1  0
  9 10  1  0
 10 11  2  0
 11 12  1  0
 12 13  2  0
 13 14  1  0
 14 15  2  0
 15 16  1  0
 16  8  1  0
 15 10  1  0
  1 17  1  0
  1 18  1  0
  1 19  1  0
  2 20  1  0
  2 21  1  0
  3 22  1  0
  3 23  1  0
  4 24  1  0
  4 25  1  0
  6 26  1  0
  6 27  1  0
  6 28  1  0
  7 29  1  0
  9 30  1  0
 11 31  1  0
 12 32  1  0
 13 33  1  0
 14 34  1  0
 16 35  1  0
M  END
>  <enum_code>  
T

>  <uuid>  
2e442448-7468-43fd-b98c-6d1e555f7a9c

>  <sha256>  
6a33d1ae81811c4c560d91d11e3d923a6f2cbbca3c5192f5a65c4f1c1941a1a4

>  <std_smi>  
CCCCN(C)Cc1nc2ccccc2[nH]1

>  <enum_smi>  
CCCCN(C)C=C1Nc2ccccc2N1

$$$$
4703a455-3069-4ba0-90e1-81743559cd1e
     RDKit          3D

 34 35  0  0  0  0  0  0  0  0999 V2000
   -5.3936   -0.5555   -0.1477 C   0  0  0  0  0  0  0  0  0  0  0  0
   -4.5198    0.6861   -0.2383 C   0  0  0  0  0  0  0  0  0  0  0  0
   -3.0852    0.4651    0.2540 C   0  0  0  0  0  0  0  0  0  0  0  0
   -2.2888   -0.5060   -0.6330 C   0  0  0  0  0  0  0  0  0  0  0  0
   -0.8833   -0.7202   -0.2845 N   0  0  0  0  0  0  0  0  0  0  0  0
   -0.6900   -1.2152    1.0748 C   0  0  0  0  0  0  0  0  0  0  0  0
   -0.0524    0.4941   -0.5255 C   0  0  0  0  0  0  0  0  0  0  0  0
    1.4355    0.3927   -0.3067 C   0  0  0  0  0  0  0  0  0  0  0  0
    2.0546    0.6585    0.8720 N   0  0  0  0  0  0  0  0  0  0  0  0
    3.3867    0.4922    0.6756 C   0  0  0  0  0  0  0  0  0  0  0  0
    4.4763    0.6104    1.5453 C   0  0  0  0  0  0  0  0  0  0  0  0
    5.7508    0.3706    1.0230 C   0  0  0  0  0  0  0  0  0  0  0  0
    5.9353    0.0243   -0.3246 C   0  0  0  0  0  0  0  0  0  0  0  0
    4.8524   -0.0949   -1.2005 C   0  0  0  0  0  0  0  0  0  0  0  0
    3.5733    0.1428   -0.6860 C   0  0  0  0  0  0  0  0  0  0  0  0
    2.3483    0.1113   -1.2671 N   0  5  0  0  0  2  0  0  0  0  0  0
   -5.3934   -0.9634    0.8680 H   0  0  0  0  0  0  0  0  0  0  0  0
   -5.0556   -1.3361   -0.8353 H   0  0  0  0  0  0  0  0  0  0  0  0
   -6.4264   -0.3071   -0.4126 H   0  0  0  0  0  0  0  0  0  0  0  0
   -4.5082    1.0506   -1.2721 H   0  0  0  0  0  0  0  0  0  0  0  0
   -4.9761    1.4760    0.3704 H   0  0  0  0  0  0  0  0  0  0  0  0
   -3.1163    0.1006    1.2873 H   0  0  0  0  0  0  0  0  0  0  0  0
   -2.5917    1.4429    0.2748 H   0  0  0  0  0  0  0  0  0  0  0  0
   -2.3479   -0.1720   -1.6770 H   0  0  0  0  0  0  0  0  0  0  0  0
   -2.7807   -1.4862   -0.6209 H   0  0  0  0  0  0  0  0  0  0  0  0
    0.3217   -1.6111    1.2111 H   0  0  0  0  0  0  0  0  0  0  0  0
   -0.8693   -0.4464    1.8345 H   0  0  0  0  0  0  0  0  0  0  0  0
   -1.3649   -2.0552    1.2767 H   0  0  0  0  0  0  0  0  0  0  0  0
   -0.4034    1.3262    0.0983 H   0  0  0  0  0  0  0  0  0  0  0  0
   -0.1919    0.8071   -1.5689 H   0  0  0  0  0  0  0  0  0  0  0  0
    4.2966    0.8784    2.5756 H   0  0  0  0  0  0  0  0  0  0  0  0
    6.6132    0.4549    1.6777 H   0  0  0  0  0  0  0  0  0  0  0  0
    6.9385   -0.1561   -0.6995 H   0  0  0  0  0  0  0  0  0  0  0  0
    4.9555   -0.3595   -2.2423 H   0  0  0  0  0  0  0  0  0  0  0  0
  1  2  1  0
  2  3  1  0
  3  4  1  0
  4  5  1  0
  5  6  1  0
  5  7  1  0
  7  8  1  0
  8  9  2  0
  9 10  1  0
 10 11  2  0
 11 12  1  0
 12 13  2  0
 13 14  1  0
 14 15  2  0
 15 16  1  0
 16  8  1  0
 15 10  1  0
  1 17  1  0
  1 18  1  0
  1 19  1  0
  2 20  1  0
  2 21  1  0
  3 22  1  0
  3 23  1  0
  4 24  1  0
  4 25  1  0
  6 26  1  0
  6 27  1  0
  6 28  1  0
  7 29  1  0
  7 30  1  0
 11 31  1  0
 12 32  1  0
 13 33  1  0
 14 34  1  0
M  CHG  1  16  -1
M  END
>  <enum_code>  
M

>  <uuid>  
4703a455-3069-4ba0-90e1-81743559cd1e

>  <sha256>  
6a33d1ae81811c4c560d91d11e3d923a6f2cbbca3c5192f5a65c4f1c1941a1a4

>  <std_smi>  
CCCCN(C)Cc1nc2ccccc2[nH]1

>  <enum_smi>  
CCCCN(C)Cc1nc2ccccc2[n-]1

$$$$
6ffd671c-1ed6-4462-bfc6-5de4a3036950
     RDKit          3D

 36 37  0  0  0  0  0  0  0  0999 V2000
    5.2954    0.8972    0.2644 C   0  0  0  0  0  0  0  0  0  0  0  0
    4.4190    0.5203   -0.9201 C   0  0  0  0  0  0  0  0  0  0  0  0
    3.1607   -0.2579   -0.5251 C   0  0  0  0  0  0  0  0  0  0  0  0
    2.1981    0.5697    0.3243 C   0  0  0  0  0  0  0  0  0  0  0  0
    0.9084   -0.1553    0.5806 N   0  3  0  0  0  4  0  0  0  0  0  0
    1.0282   -1.3715    1.4502 C   0  0  0  0  0  0  0  0  0  0  0  0
    0.0383   -0.3775   -0.6425 C   0  0  0  0  0  0  0  0  0  0  0  0
   -1.3918   -0.2073   -0.2654 C   0  0  0  0  0  0  0  0  0  0  0  0
   -1.7951    0.3023    0.8838 N   0  0  0  0  0  0  0  0  0  0  0  0
   -3.1695    0.2844    0.8263 C   0  0  0  0  0  0  0  0  0  0  0  0
   -4.1133    0.7059    1.7726 C   0  0  0  0  0  0  0  0  0  0  0  0
   -5.4733    0.5763    1.4642 C   0  0  0  0  0  0  0  0  0  0  0  0
   -5.8827    0.0396    0.2412 C   0  0  0  0  0  0  0  0  0  0  0  0
   -4.9538   -0.3858   -0.7155 C   0  0  0  0  0  0  0  0  0  0  0  0
   -3.6050   -0.2462   -0.3834 C   0  0  0  0  0  0  0  0  0  0  0  0
   -2.4530   -0.5492   -1.0651 N   0  0  0  0  0  0  0  0  0  0  0  0
    6.2200    1.3664   -0.0870 H   0  0  0  0  0  0  0  0  0  0  0  0
    5.5658    0.0132    0.8504 H   0  0  0  0  0  0  0  0  0  0  0  0
    4.7928    1.6102    0.9245 H   0  0  0  0  0  0  0  0  0  0  0  0
    4.1397    1.4263   -1.4704 H   0  0  0  0  0  0  0  0  0  0  0  0
    5.0087   -0.0985   -1.6070 H   0  0  0  0  0  0  0  0  0  0  0  0
    3.4573   -1.1664    0.0115 H   0  0  0  0  0  0  0  0  0  0  0  0
    2.6635   -0.5829   -1.4464 H   0  0  0  0  0  0  0  0  0  0  0  0
    1.9392    1.5135   -0.1684 H   0  0  0  0  0  0  0  0  0  0  0  0
    2.6233    0.8051    1.3054 H   0  0  0  0  0  0  0  0  0  0  0  0
    0.3217    0.4913    1.1413 H   0  0  0  0  0  0  0  0  0  0  0  0
    0.0249   -1.6956    1.7384 H   0  0  0  0  0  0  0  0  0  0  0  0
    1.5363   -2.1590    0.8884 H   0  0  0  0  0  0  0  0  0  0  0  0
    1.5976   -1.0979    2.3423 H   0  0  0  0  0  0  0  0  0  0  0  0
    0.3080    0.3802   -1.3857 H   0  0  0  0  0  0  0  0  0  0  0  0
    0.2549   -1.3746   -1.0383 H   0  0  0  0  0  0  0  0  0  0  0  0
   -3.7973    1.1242    2.7221 H   0  0  0  0  0  0  0  0  0  0  0  0
   -6.2204    0.8993    2.1869 H   0  0  0  0  0  0  0  0  0  0  0  0
   -6.9474   -0.0483    0.0281 H   0  0  0  0  0  0  0  0  0  0  0  0
   -5.2799   -0.8003   -1.6638 H   0  0  0  0  0  0  0  0  0  0  0  0
   -2.4191   -0.9511   -1.9929 H   0  0  0  0  0  0  0  0  0  0  0  0
  1  2  1  0
  2  3  1  0
  3  4  1  0
  4  5  1  0
  5  6  1  0
  5  7  1  0
  7  8  1  0
  8  9  2  0
  9 10  1  0
 10 11  2  0
 11 12  1  0
 12 13  2  0
 13 14  1  0
 14 15  2  0
 15 16  1  0
 16  8  1  0
 15 10  1  0
  1 17  1  0
  1 18  1  0
  1 19  1  0
  2 20  1  0
  2 21  1  0
  3 22  1  0
  3 23  1  0
  4 24  1  0
  4 25  1  0
  5 26  1  0
  6 27  1  0
  6 28  1  0
  6 29  1  0
  7 30  1  0
  7 31  1  0
 11 32  1  0
 12 33  1  0
 13 34  1  0
 14 35  1  0
 16 36  1  0
M  CHG  1   5   1
M  END
>  <enum_code>  
M

>  <uuid>  
6ffd671c-1ed6-4462-bfc6-5de4a3036950

>  <sha256>  
6a33d1ae81811c4c560d91d11e3d923a6f2cbbca3c5192f5a65c4f1c1941a1a4

>  <std_smi>  
CCCCN(C)Cc1nc2ccccc2[nH]1

>  <enum_smi>  
CCCC[NH+](C)Cc1nc2ccccc2[nH]1

$$$$
a38b618f-51ca-47dd-8225-5a214558c6d1
     RDKit          3D

 35 36  0  0  0  0  0  0  0  0999 V2000
    4.7441    1.3494    1.1613 C   0  0  0  0  0  0  0  0  0  0  0  0
    3.3086    1.3936    0.6622 C   0  0  0  0  0  0  0  0  0  0  0  0
    2.8644    0.0378    0.1117 C   0  0  0  0  0  0  0  0  0  0  0  0
    1.4196    0.0982   -0.3844 C   0  0  0  0  0  0  0  0  0  0  0  0
    1.0348   -1.2322   -0.9922 N   0  3  0  0  0  4  0  0  0  0  0  0
    0.7243   -2.2745    0.0450 C   0  0  0  0  0  0  0  0  0  0  0  0
   -0.1895   -1.0456   -1.9065 C   0  0  0  0  0  0  0  0  0  0  0  0
   -1.4100   -0.5610   -1.2072 C   0  0  0  0  0  0  0  0  0  0  0  0
   -2.2520   -1.3681   -0.5325 N   0  0  0  0  0  0  0  0  0  0  0  0
   -3.1445   -0.5684    0.1111 C   0  0  0  0  0  0  0  0  0  0  0  0
   -4.2690   -0.8619    0.8893 C   0  0  0  0  0  0  0  0  0  0  0  0
   -4.9808    0.2150    1.4260 C   0  0  0  0  0  0  0  0  0  0  0  0
   -4.5853    1.5423    1.1971 C   0  0  0  0  0  0  0  0  0  0  0  0
   -3.4621    1.8461    0.4222 C   0  0  0  0  0  0  0  0  0  0  0  0
   -2.7440    0.7758   -0.1207 C   0  0  0  0  0  0  0  0  0  0  0  0
   -1.6264    0.7320   -0.8949 N   0  5  0  0  0  2  0  0  0  0  0  0
    4.8572    0.6162    1.9662 H   0  0  0  0  0  0  0  0  0  0  0  0
    5.0406    2.3287    1.5498 H   0  0  0  0  0  0  0  0  0  0  0  0
    5.4323    1.0819    0.3531 H   0  0  0  0  0  0  0  0  0  0  0  0
    3.2229    2.1588   -0.1180 H   0  0  0  0  0  0  0  0  0  0  0  0
    2.6504    1.6944    1.4857 H   0  0  0  0  0  0  0  0  0  0  0  0
    3.5277   -0.2589   -0.7101 H   0  0  0  0  0  0  0  0  0  0  0  0
    2.9655   -0.7189    0.8979 H   0  0  0  0  0  0  0  0  0  0  0  0
    0.7321    0.3283    0.4360 H   0  0  0  0  0  0  0  0  0  0  0  0
    1.3358    0.8584   -1.1690 H   0  0  0  0  0  0  0  0  0  0  0  0
    1.7776   -1.5661   -1.6033 H   0  0  0  0  0  0  0  0  0  0  0  0
    0.0636   -1.8607    0.8103 H   0  0  0  0  0  0  0  0  0  0  0  0
    0.2787   -3.1421   -0.4495 H   0  0  0  0  0  0  0  0  0  0  0  0
    1.6711   -2.5779    0.4992 H   0  0  0  0  0  0  0  0  0  0  0  0
    0.1078   -0.3425   -2.6930 H   0  0  0  0  0  0  0  0  0  0  0  0
   -0.3787   -2.0152   -2.3814 H   0  0  0  0  0  0  0  0  0  0  0  0
   -4.5525   -1.8926    1.0470 H   0  0  0  0  0  0  0  0  0  0  0  0
   -5.8619    0.0170    2.0315 H   0  0  0  0  0  0  0  0  0  0  0  0
   -5.1654    2.3545    1.6283 H   0  0  0  0  0  0  0  0  0  0  0  0
   -3.1370    2.8581    0.2276 H   0  0  0  0  0  0  0  0  0  0  0  0
  1  2  1  0
  2  3  1  0
  3  4  1  0
  4  5  1  0
  5  6  1  0
  5  7  1  0
  7  8  1  0
  8  9  2  0
  9 10  1  0
 10 11  2  0
 11 12  1  0
 12 13  2  0
 13 14  1  0
 14 15  2  0
 15 16  1  0
 16  8  1  0
 15 10  1  0
  1 17  1  0
  1 18  1  0
  1 19  1  0
  2 20  1  0
  2 21  1  0
  3 22  1  0
  3 23  1  0
  4 24  1  0
  4 25  1  0
  5 26  1  0
  6 27  1  0
  6 28  1  0
  6 29  1  0
  7 30  1  0
  7 31  1  0
 11 32  1  0
 12 33  1  0
 13 34  1  0
 14 35  1  0
M  CHG  2   5   1  16  -1
M  END
>  <enum_code>  
M

>  <uuid>  
a38b618f-51ca-47dd-8225-5a214558c6d1

>  <sha256>  
6a33d1ae81811c4c560d91d11e3d923a6f2cbbca3c5192f5a65c4f1c1941a1a4

>  <std_smi>  
CCCCN(C)Cc1nc2ccccc2[nH]1

>  <enum_smi>  
CCCC[NH+](C)Cc1nc2ccccc2[n-]1

$$$$
a345691d-b4d7-4e38-861d-1ef0e9014b54
     RDKit          3D

 21 22  0  0  0  0  0  0  0  0999 V2000
   -3.4307    0.5582    0.2433 C   0  0  0  0  0  0  0  0  0  0  0  0
   -2.1200   -0.0336    0.1627 N   0  0  0  0  0  0  0  0  0  0  0  0
   -1.8059   -1.1390   -0.5566 C   0  0  0  0  0  0  0  0  0  0  0  0
   -2.5045   -1.8310   -1.2655 O   0  0  0  0  0  0  0  0  0  0  0  0
   -0.3162   -1.3915   -0.2628 C   0  0  0  0  0  0  0  0  0  0  0  0
    0.3567   -2.2858   -0.7290 O   0  0  0  0  0  0  0  0  0  0  0  0
    0.0380   -0.4207    0.6120 N   0  0  0  0  0  0  0  0  0  0  0  0
    1.3669   -0.2470    1.1491 C   0  0  0  0  0  0  0  0  0  0  0  0
    2.2391    0.4087    0.1315 C   0  0  0  0  0  0  0  0  0  0  0  0
    1.7607    1.5374   -0.5392 N   0  0  0  0  0  0  0  0  0  0  0  0
    2.6357    2.0027   -1.4169 N   0  0  0  0  0  0  0  0  0  0  0  0
    4.0534    1.1099   -1.4539 S   0  0  0  0  0  0  0  0  0  0  0  0
    3.5118    0.0398   -0.2516 C   0  0  0  0  0  0  0  0  0  0  0  0
    4.4958   -1.2427    0.3002 Cl  0  0  0  0  0  0  0  0  0  0  0  0
   -1.0361    0.3774    0.8923 C   0  0  0  0  0  0  0  0  0  0  0  0
   -1.0386    1.2948    1.7010 O   0  0  0  0  0  0  0  0  0  0  0  0
   -3.8959    0.2399    1.1809 H   0  0  0  0  0  0  0  0  0  0  0  0
   -3.3404    1.6481    0.2509 H   0  0  0  0  0  0  0  0  0  0  0  0
   -4.0507    0.2358   -0.5973 H   0  0  0  0  0  0  0  0  0  0  0  0
    1.3268    0.3730    2.0508 H   0  0  0  0  0  0  0  0  0  0  0  0
    1.7542   -1.2344    1.4211 H   0  0  0  0  0  0  0  0  0  0  0  0
  1  2  1  0
  2  3  1  0
  3  4  2  0
  3  5  1  0
  5  6  2  0
  5  7  1  0
  7  8  1  0
  8  9  1  0
  9 10  1  0
 10 11  2  0
 11 12  1  0
 12 13  1  0
 13 14  1  0
  7 15  1  0
 15 16  2  0
 15  2  1  0
 13  9  2  0
  1 17  1  0
  1 18  1  0
  1 19  1  0
  8 20  1  0
  8 21  1  0
M  END
>  <enum_code>  
B

>  <uuid>  
a345691d-b4d7-4e38-861d-1ef0e9014b54

>  <sha256>  
fb5c1ff1b2764841ce2246b40802b6c44616d577450af7eb1485b25efbb5245b

>  <std_smi>  
CN1C(=O)C(=O)N(Cc2nnsc2Cl)C1=O

>  <enum_smi>  
CN1C(=O)C(=O)N(Cc2nnsc2Cl)C1=O

$$$$
