183cfd2d-a543-4691-b979-d5b737c19f95
     RDKit          3D

 33 34  0  0  0  0  0  0  0  0999 V2000
    0.4795   -2.9369   -0.2360 O   0  0  0  0  0  0  0  0  0  0  0  0
    0.6363   -1.8240    0.6723 S   0  0  0  0  0  6  0  0  0  0  0  0
    0.7744   -2.0079    2.0997 O   0  0  0  0  0  0  0  0  0  0  0  0
   -0.6625   -0.7617    0.4696 N   0  0  0  0  0  0  0  0  0  0  0  0
   -1.9541   -1.4452    0.2516 C   0  0  0  0  0  0  0  0  0  0  0  0
   -3.0900   -0.4513    0.2799 C   0  0  0  0  0  0  0  0  0  0  0  0
   -3.2452    0.4728   -0.7639 C   0  0  0  0  0  0  0  0  0  0  0  0
   -4.2835    1.4047   -0.7366 C   0  0  0  0  0  0  0  0  0  0  0  0
   -5.1736    1.4253    0.3353 C   0  0  0  0  0  0  0  0  0  0  0  0
   -5.0251    0.5167    1.3817 C   0  0  0  0  0  0  0  0  0  0  0  0
   -3.9870   -0.4164    1.3569 C   0  0  0  0  0  0  0  0  0  0  0  0
    1.9851   -0.8320    0.0894 C   0  0  0  0  0  0  0  0  0  0  0  0
    2.1079   -0.5928   -1.2819 C   0  0  0  0  0  0  0  0  0  0  0  0
    3.1730    0.1767   -1.7537 C   0  0  0  0  0  0  0  0  0  0  0  0
    4.1180    0.7112   -0.8614 C   0  0  0  0  0  0  0  0  0  0  0  0
    5.2826    1.5244   -1.3765 C   0  0  0  0  0  0  0  0  0  0  0  0
    4.9874    2.2202   -2.5098 F   0  0  0  0  0  0  0  0  0  0  0  0
    6.3595    0.7500   -1.6812 F   0  0  0  0  0  0  0  0  0  0  0  0
    5.7263    2.4484   -0.4792 F   0  0  0  0  0  0  0  0  0  0  0  0
    3.9868    0.4453    0.5127 C   0  0  0  0  0  0  0  0  0  0  0  0
    2.9232   -0.3239    0.9904 C   0  0  0  0  0  0  0  0  0  0  0  0
   -0.7257   -0.1773    1.3064 H   0  0  0  0  0  0  0  0  0  0  0  0
   -1.9535   -1.9522   -0.7200 H   0  0  0  0  0  0  0  0  0  0  0  0
   -2.1105   -2.2017    1.0297 H   0  0  0  0  0  0  0  0  0  0  0  0
   -2.5508    0.4709   -1.6018 H   0  0  0  0  0  0  0  0  0  0  0  0
   -4.3967    2.1158   -1.5509 H   0  0  0  0  0  0  0  0  0  0  0  0
   -5.9824    2.1512    0.3562 H   0  0  0  0  0  0  0  0  0  0  0  0
   -5.7191    0.5353    2.2184 H   0  0  0  0  0  0  0  0  0  0  0  0
   -3.8863   -1.1158    2.1842 H   0  0  0  0  0  0  0  0  0  0  0  0
    1.3820   -1.0037   -1.9809 H   0  0  0  0  0  0  0  0  0  0  0  0
    3.2661    0.3588   -2.8240 H   0  0  0  0  0  0  0  0  0  0  0  0
    4.7189    0.8381    1.2181 H   0  0  0  0  0  0  0  0  0  0  0  0
    2.8390   -0.5229    2.0568 H   0  0  0  0  0  0  0  0  0  0  0  0
  1  2  2  0
  2  3  2  0
  2  4  1  0
  4  5  1  0
  5  6  1  0
  6  7  2  0
  7  8  1  0
  8  9  2  0
  9 10  1  0
 10 11  2  0
  2 12  1  0
 12 13  2  0
 13 14  1  0
 14 15  2  0
 15 16  1  0
 16 17  1  0
 16 18  1  0
 16 19  1  0
 15 20  1  0
 20 21  2  0
 11  6  1  0
 21 12  1  0
  4 22  1  0
  5 23  1  0
  5 24  1  0
  7 25  1  0
  8 26  1  0
  9 27  1  0
 10 28  1  0
 11 29  1  0
 13 30  1  0
 14 31  1  0
 20 32  1  0
 21 33  1  0
M  END
>  <enum_code>  
B

>  <uuid>  
183cfd2d-a543-4691-b979-d5b737c19f95

>  <sha256>  
129f8588a91260953442428c688d580e9654ccfc067ea20e8a76588bf01b96ac

>  <std_smi>  
O=S(=O)(NCc1ccccc1)c1ccc(C(F)(F)F)cc1

>  <enum_smi>  
O=S(=O)(NCc1ccccc1)c1ccc(C(F)(F)F)cc1

$$$$
1b32740e-1092-44f0-95ec-5ec2d623fdc4
     RDKit          3D

 32 33  0  0  0  0  0  0  0  0999 V2000
    0.2563   -2.8288   -1.9363 O   0  0  0  0  0  0  0  0  0  0  0  0
   -0.0347   -1.4174   -2.1826 S   0  0  0  0  0  6  0  0  0  0  0  0
    0.0668   -1.0200   -3.5857 O   0  0  0  0  0  0  0  0  0  0  0  0
   -1.3115   -0.8348   -1.4248 N   0  5  0  0  0  2  0  0  0  0  0  0
   -1.4645   -1.3598   -0.0722 C   0  0  0  0  0  0  0  0  0  0  0  0
   -2.5389   -0.5550    0.6276 C   0  0  0  0  0  0  0  0  0  0  0  0
   -3.8823   -0.9475    0.5598 C   0  0  0  0  0  0  0  0  0  0  0  0
   -4.8724   -0.2028    1.2033 C   0  0  0  0  0  0  0  0  0  0  0  0
   -4.5297    0.9457    1.9158 C   0  0  0  0  0  0  0  0  0  0  0  0
   -3.1977    1.3531    1.9798 C   0  0  0  0  0  0  0  0  0  0  0  0
   -2.2078    0.6083    1.3361 C   0  0  0  0  0  0  0  0  0  0  0  0
    1.4047   -0.5714   -1.4689 C   0  0  0  0  0  0  0  0  0  0  0  0
    2.2944   -1.2633   -0.6482 C   0  0  0  0  0  0  0  0  0  0  0  0
    3.3943   -0.5904   -0.1140 C   0  0  0  0  0  0  0  0  0  0  0  0
    3.6058    0.7713   -0.3962 C   0  0  0  0  0  0  0  0  0  0  0  0
    4.8061    1.4881    0.1631 C   0  0  0  0  0  0  0  0  0  0  0  0
    5.8939    1.4103   -0.6549 F   0  0  0  0  0  0  0  0  0  0  0  0
    4.5947    2.8208    0.3673 F   0  0  0  0  0  0  0  0  0  0  0  0
    5.2172    0.9977    1.3684 F   0  0  0  0  0  0  0  0  0  0  0  0
    2.7036    1.4447   -1.2388 C   0  0  0  0  0  0  0  0  0  0  0  0
    1.6028    0.7759   -1.7745 C   0  0  0  0  0  0  0  0  0  0  0  0
   -1.7588   -2.4176   -0.0665 H   0  0  0  0  0  0  0  0  0  0  0  0
   -0.5515   -1.3017    0.5339 H   0  0  0  0  0  0  0  0  0  0  0  0
   -4.1517   -1.8341   -0.0090 H   0  0  0  0  0  0  0  0  0  0  0  0
   -5.9092   -0.5177    1.1383 H   0  0  0  0  0  0  0  0  0  0  0  0
   -5.3004    1.5278    2.4110 H   0  0  0  0  0  0  0  0  0  0  0  0
   -2.9264    2.2534    2.5220 H   0  0  0  0  0  0  0  0  0  0  0  0
   -1.1715    0.9346    1.3737 H   0  0  0  0  0  0  0  0  0  0  0  0
    2.1286   -2.3148   -0.4297 H   0  0  0  0  0  0  0  0  0  0  0  0
    4.0861   -1.1358    0.5245 H   0  0  0  0  0  0  0  0  0  0  0  0
    2.8535    2.4941   -1.4835 H   0  0  0  0  0  0  0  0  0  0  0  0
    0.9006    1.2871   -2.4284 H   0  0  0  0  0  0  0  0  0  0  0  0
  1  2  2  0
  2  3  2  0
  2  4  1  0
  4  5  1  0
  5  6  1  0
  6  7  2  0
  7  8  1  0
  8  9  2  0
  9 10  1  0
 10 11  2  0
  2 12  1  0
 12 13  2  0
 13 14  1  0
 14 15  2  0
 15 16  1  0
 16 17  1  0
 16 18  1  0
 16 19  1  0
 15 20  1  0
 20 21  2  0
 11  6  1  0
 21 12  1  0
  5 22  1  0
  5 23  1  0
  7 24  1  0
  8 25  1  0
  9 26  1  0
 10 27  1  0
 11 28  1  0
 13 29  1  0
 14 30  1  0
 20 31  1  0
 21 32  1  0
M  CHG  1   4  -1
M  END
>  <enum_code>  
M

>  <uuid>  
1b32740e-1092-44f0-95ec-5ec2d623fdc4

>  <sha256>  
129f8588a91260953442428c688d580e9654ccfc067ea20e8a76588bf01b96ac

>  <std_smi>  
O=S(=O)(NCc1ccccc1)c1ccc(C(F)(F)F)cc1

>  <enum_smi>  
O=S(=O)([N-]Cc1ccccc1)c1ccc(C(F)(F)F)cc1

$$$$
a800d6c6-11dc-40e4-8609-bb73e6b537c4
     RDKit          3D

 26 28  0  0  0  0  0  0  0  0999 V2000
    4.3804    0.7639   -0.4991 C   0  0  0  0  0  0  0  0  0  0  0  0
    2.9388    0.4399   -0.3489 C   0  0  0  0  0  0  0  0  0  0  0  0
    2.0508    1.4167   -0.1422 N   0  0  0  0  0  0  0  0  0  0  0  0
    0.8436    0.7904   -0.0490 N   0  0  0  0  0  0  0  0  0  0  0  0
   -0.4270    1.3712    0.1773 C   0  0  0  0  0  0  0  0  0  0  0  0
   -0.5253    2.7441    0.3304 O   0  0  0  0  0  0  0  0  0  0  0  0
   -1.4918    0.5615    0.2466 C   0  0  0  0  0  0  0  0  0  0  0  0
   -1.2416   -0.8927    0.0386 C   0  0  0  0  0  0  0  0  0  0  0  0
   -0.0947   -1.4580   -0.1624 N   0  0  0  0  0  0  0  0  0  0  0  0
    0.9794   -0.6036   -0.2056 C   0  0  0  0  0  0  0  0  0  0  0  0
    2.3248   -0.8272   -0.3959 C   0  0  0  0  0  0  0  0  0  0  0  0
    2.9476   -2.0907   -0.5998 C   0  0  0  0  0  0  0  0  0  0  0  0
    3.4984   -3.0988   -0.7691 N   0  0  0  0  0  0  0  0  0  0  0  0
   -2.5336   -1.6471    0.1013 C   0  0  0  0  0  0  0  0  0  0  0  0
   -3.5506   -0.5283   -0.1426 C   0  0  0  0  0  0  0  0  0  0  0  0
   -2.9518    0.7520    0.4507 C   0  0  0  0  0  0  0  0  0  0  0  0
    4.9675    0.2602    0.2755 H   0  0  0  0  0  0  0  0  0  0  0  0
    4.7449    0.4370   -1.4782 H   0  0  0  0  0  0  0  0  0  0  0  0
    4.5625    1.8403   -0.4136 H   0  0  0  0  0  0  0  0  0  0  0  0
   -1.4500    2.9874    0.4954 H   0  0  0  0  0  0  0  0  0  0  0  0
   -2.5860   -2.4254   -0.6637 H   0  0  0  0  0  0  0  0  0  0  0  0
   -2.6448   -2.0890    1.0961 H   0  0  0  0  0  0  0  0  0  0  0  0
   -3.6979   -0.3974   -1.2229 H   0  0  0  0  0  0  0  0  0  0  0  0
   -4.5263   -0.7635    0.2940 H   0  0  0  0  0  0  0  0  0  0  0  0
   -3.1760    0.8157    1.5209 H   0  0  0  0  0  0  0  0  0  0  0  0
   -3.3413    1.6415   -0.0520 H   0  0  0  0  0  0  0  0  0  0  0  0
  1  2  1  0
  2  3  2  0
  3  4  1  0
  4  5  1  0
  5  6  1  0
  5  7  2  0
  7  8  1  0
  8  9  2  0
  9 10  1  0
 10 11  2  0
 11 12  1  0
 12 13  3  0
  8 14  1  0
 14 15  1  0
 15 16  1  0
 11  2  1  0
 10  4  1  0
 16  7  1  0
  1 17  1  0
  1 18  1  0
  1 19  1  0
  6 20  1  0
 14 21  1  0
 14 22  1  0
 15 23  1  0
 15 24  1  0
 16 25  1  0
 16 26  1  0
M  END
>  <enum_code>  
B

>  <uuid>  
a800d6c6-11dc-40e4-8609-bb73e6b537c4

>  <sha256>  
39e1b0cb6462242f67993cb5678037f9b85a03408faf08abbd395fb60bce143b

>  <std_smi>  
Cc1nn2c(O)c3c(nc2c1C#N)CCC3

>  <enum_smi>  
Cc1nn2c(O)c3c(nc2c1C#N)CCC3

$$$$
acaf5895-8334-450a-8ad6-82767e7dbeb8
     RDKit          3D

 26 28  0  0  0  0  0  0  0  0999 V2000
    4.0183   -0.4498   -1.5534 C   0  0  0  0  0  0  0  0  0  0  0  0
    2.8330   -0.2360   -0.9674 C   0  0  0  0  0  0  0  0  0  0  0  0
    1.9339   -1.2185   -0.5911 N   0  0  0  0  0  0  0  0  0  0  0  0
    0.7354   -0.6810   -0.2571 N   0  0  0  0  0  0  0  0  0  0  0  0
   -0.4338   -1.2974    0.1348 C   0  0  0  0  0  0  0  0  0  0  0  0
   -0.5028   -2.6689    0.0829 O   0  0  0  0  0  0  0  0  0  0  0  0
   -1.4416   -0.5052    0.5358 C   0  0  0  0  0  0  0  0  0  0  0  0
   -1.2688    0.9381    0.5543 C   0  0  0  0  0  0  0  0  0  0  0  0
   -0.0943    1.5401    0.1805 N   0  0  0  0  0  0  0  0  0  0  0  0
    0.8347    0.7087   -0.2091 C   0  0  0  0  0  0  0  0  0  0  0  0
    2.2256    1.1497   -0.6534 C   0  0  0  0  0  0  0  0  0  0  0  0
    2.1480    2.0046   -1.8389 C   0  0  0  0  0  0  0  0  0  0  0  0
    2.1327    2.6817   -2.7837 N   0  0  0  0  0  0  0  0  0  0  0  0
   -2.3775    1.5447    0.9744 C   0  0  0  0  0  0  0  0  0  0  0  0
   -3.4564    0.5602    1.2953 C   0  0  0  0  0  0  0  0  0  0  0  0
   -2.8273   -0.8145    1.0094 C   0  0  0  0  0  0  0  0  0  0  0  0
    4.6688    0.3709   -1.8415 H   0  0  0  0  0  0  0  0  0  0  0  0
    4.3738   -1.4552   -1.7561 H   0  0  0  0  0  0  0  0  0  0  0  0
    1.9228   -2.0754   -1.1425 H   0  0  0  0  0  0  0  0  0  0  0  0
   -1.3749   -2.9356    0.4155 H   0  0  0  0  0  0  0  0  0  0  0  0
    2.7391    1.6247    0.1879 H   0  0  0  0  0  0  0  0  0  0  0  0
   -2.4845    2.6154    1.0693 H   0  0  0  0  0  0  0  0  0  0  0  0
   -4.3364    0.7281    0.6658 H   0  0  0  0  0  0  0  0  0  0  0  0
   -3.7602    0.6424    2.3440 H   0  0  0  0  0  0  0  0  0  0  0  0
   -3.3997   -1.3475    0.2424 H   0  0  0  0  0  0  0  0  0  0  0  0
   -2.8078   -1.4245    1.9191 H   0  0  0  0  0  0  0  0  0  0  0  0
  1  2  2  3
  2  3  1  0
  3  4  1  0
  4  5  1  0
  5  6  1  0
  5  7  2  0
  7  8  1  0
  8  9  1  0
  9 10  2  0
 10 11  1  0
 11 12  1  0
 12 13  3  0
  8 14  2  0
 14 15  1  0
 15 16  1  0
 11  2  1  0
 10  4  1  0
 16  7  1  0
  1 17  1  0
  1 18  1  0
  3 19  1  0
  6 20  1  0
 11 21  1  0
 14 22  1  0
 15 23  1  0
 15 24  1  0
 16 25  1  0
 16 26  1  0
M  END
>  <enum_code>  
T

>  <uuid>  
acaf5895-8334-450a-8ad6-82767e7dbeb8

>  <sha256>  
39e1b0cb6462242f67993cb5678037f9b85a03408faf08abbd395fb60bce143b

>  <std_smi>  
Cc1nn2c(O)c3c(nc2c1C#N)CCC3

>  <enum_smi>  
C=C1NN2C(=NC3=CCCC3=C2O)C1C#N

$$$$
41d3623e-acd8-423e-8965-2314a4c32a17
     RDKit          3D

 26 28  0  0  0  0  0  0  0  0999 V2000
   -4.3690   -0.5264   -0.7752 C   0  0  0  0  0  0  0  0  0  0  0  0
   -3.0433   -0.4290   -0.6380 C   0  0  0  0  0  0  0  0  0  0  0  0
   -2.1617   -1.4702   -0.3784 N   0  0  0  0  0  0  0  0  0  0  0  0
   -0.9208   -0.8846   -0.1054 N   0  0  0  0  0  0  0  0  0  0  0  0
    0.2037   -1.5886    0.2970 C   0  0  0  0  0  0  0  0  0  0  0  0
    0.2493   -2.7914    0.5335 O   0  0  0  0  0  0  0  0  0  0  0  0
    1.3999   -0.7181    0.4443 C   0  0  0  0  0  0  0  0  0  0  0  0
    1.3159    0.5994    0.2037 C   0  0  0  0  0  0  0  0  0  0  0  0
    0.1610    1.2276   -0.1832 N   0  0  0  0  0  0  0  0  0  0  0  0
   -0.9786    0.4800   -0.3388 C   0  0  0  0  0  0  0  0  0  0  0  0
   -2.2419    0.7964   -0.6799 C   0  0  0  0  0  0  0  0  0  0  0  0
   -2.7135    2.0905   -0.9813 C   0  0  0  0  0  0  0  0  0  0  0  0
   -3.0841    3.1644   -1.2203 N   0  0  0  0  0  0  0  0  0  0  0  0
    2.6291    1.2735    0.4096 C   0  0  0  0  0  0  0  0  0  0  0  0
    3.4386    0.1916    1.1412 C   0  0  0  0  0  0  0  0  0  0  0  0
    2.7561   -1.1524    0.8491 C   0  0  0  0  0  0  0  0  0  0  0  0
   -4.8632   -1.4912   -0.7170 H   0  0  0  0  0  0  0  0  0  0  0  0
   -4.9996    0.3372   -0.9615 H   0  0  0  0  0  0  0  0  0  0  0  0
   -2.4706   -2.1494    0.3163 H   0  0  0  0  0  0  0  0  0  0  0  0
    0.1502    2.2269   -0.3537 H   0  0  0  0  0  0  0  0  0  0  0  0
    2.5453    2.1790    1.0180 H   0  0  0  0  0  0  0  0  0  0  0  0
    3.0860    1.5281   -0.5524 H   0  0  0  0  0  0  0  0  0  0  0  0
    3.4171    0.3864    2.2218 H   0  0  0  0  0  0  0  0  0  0  0  0
    4.4903    0.1916    0.8363 H   0  0  0  0  0  0  0  0  0  0  0  0
    2.7493   -1.7912    1.7370 H   0  0  0  0  0  0  0  0  0  0  0  0
    3.2544   -1.6800    0.0294 H   0  0  0  0  0  0  0  0  0  0  0  0
  1  2  2  3
  2  3  1  0
  3  4  1  0
  4  5  1  0
  5  6  2  0
  5  7  1  0
  7  8  2  0
  8  9  1  0
  9 10  1  0
 10 11  2  0
 11 12  1  0
 12 13  3  0
  8 14  1  0
 14 15  1  0
 15 16  1  0
 11  2  1  0
 10  4  1  0
 16  7  1  0
  1 17  1  0
  1 18  1  0
  3 19  1  0
  9 20  1  0
 14 21  1  0
 14 22  1  0
 15 23  1  0
 15 24  1  0
 16 25  1  0
 16 26  1  0
M  END
>  <enum_code>  
T

>  <uuid>  
41d3623e-acd8-423e-8965-2314a4c32a17

>  <sha256>  
39e1b0cb6462242f67993cb5678037f9b85a03408faf08abbd395fb60bce143b

>  <std_smi>  
Cc1nn2c(O)c3c(nc2c1C#N)CCC3

>  <enum_smi>  
C=C1NN2C(=O)C3=C(CCC3)NC2=C1C#N

$$$$
ce65fe6b-092a-4d56-a512-ac3e7f21d90e
     RDKit          3D

 26 28  0  0  0  0  0  0  0  0999 V2000
    1.8543    1.6678   -3.3462 C   0  0  0  0  0  0  0  0  0  0  0  0
    1.3668    0.9575   -2.3212 C   0  0  0  0  0  0  0  0  0  0  0  0
    0.0552    0.5564   -2.1742 N   0  0  0  0  0  0  0  0  0  0  0  0
   -0.1671    0.2360   -0.8458 N   0  0  0  0  0  0  0  0  0  0  0  0
   -1.4329    0.2350   -0.2855 C   0  0  0  0  0  0  0  0  0  0  0  0
   -2.4730    0.3796   -0.9262 O   0  0  0  0  0  0  0  0  0  0  0  0
   -1.3906    0.1900    1.2336 C   0  0  0  0  0  0  0  0  0  0  0  0
   -0.0661   -0.3327    1.7182 C   0  0  0  0  0  0  0  0  0  0  0  0
    1.1224   -0.0045    1.1292 N   0  0  0  0  0  0  0  0  0  0  0  0
    1.0275    0.2337   -0.1419 C   0  0  0  0  0  0  0  0  0  0  0  0
    2.1680    0.5727   -1.0739 C   0  0  0  0  0  0  0  0  0  0  0  0
    3.0122   -0.6001   -1.3086 C   0  0  0  0  0  0  0  0  0  0  0  0
    3.7059   -1.5107   -1.5080 N   0  0  0  0  0  0  0  0  0  0  0  0
   -0.2157   -1.1855    2.7341 C   0  0  0  0  0  0  0  0  0  0  0  0
   -1.6568   -1.3884    3.0683 C   0  0  0  0  0  0  0  0  0  0  0  0
   -2.3791   -0.7951    1.8538 C   0  0  0  0  0  0  0  0  0  0  0  0
    2.8942    1.9801   -3.3792 H   0  0  0  0  0  0  0  0  0  0  0  0
    1.2312    1.9392   -4.1931 H   0  0  0  0  0  0  0  0  0  0  0  0
   -0.6667    1.1278   -2.6181 H   0  0  0  0  0  0  0  0  0  0  0  0
   -1.5466    1.2071    1.6128 H   0  0  0  0  0  0  0  0  0  0  0  0
    2.7283    1.4224   -0.6724 H   0  0  0  0  0  0  0  0  0  0  0  0
    0.5987   -1.6859    3.2392 H   0  0  0  0  0  0  0  0  0  0  0  0
   -1.9124   -0.8563    3.9903 H   0  0  0  0  0  0  0  0  0  0  0  0
   -1.9013   -2.4476    3.1893 H   0  0  0  0  0  0  0  0  0  0  0  0
   -3.3150   -0.3055    2.1440 H   0  0  0  0  0  0  0  0  0  0  0  0
   -2.6416   -1.5930    1.1466 H   0  0  0  0  0  0  0  0  0  0  0  0
  1  2  2  3
  2  3  1  0
  3  4  1  0
  4  5  1  0
  5  6  2  0
  5  7  1  0
  7  8  1  0
  8  9  1  0
  9 10  2  0
 10 11  1  0
 11 12  1  0
 12 13  3  0
  8 14  2  0
 14 15  1  0
 15 16  1  0
 11  2  1  0
 10  4  1  0
 16  7  1  0
  1 17  1  0
  1 18  1  0
  3 19  1  0
  7 20  1  0
 11 21  1  0
 14 22  1  0
 15 23  1  0
 15 24  1  0
 16 25  1  0
 16 26  1  0
M  END
>  <enum_code>  
T

>  <uuid>  
ce65fe6b-092a-4d56-a512-ac3e7f21d90e

>  <sha256>  
39e1b0cb6462242f67993cb5678037f9b85a03408faf08abbd395fb60bce143b

>  <std_smi>  
Cc1nn2c(O)c3c(nc2c1C#N)CCC3

>  <enum_smi>  
C=C1NN2C(=O)C3CCC=C3N=C2C1C#N

$$$$
5cddb777-44eb-4f12-b088-184dab734f8f
     RDKit          3D

 26 28  0  0  0  0  0  0  0  0999 V2000
    4.3479   -0.0205   -0.6210 C   0  0  0  0  0  0  0  0  0  0  0  0
    3.0208   -0.0126   -0.4653 C   0  0  0  0  0  0  0  0  0  0  0  0
    2.1397   -1.0217   -0.8230 N   0  0  0  0  0  0  0  0  0  0  0  0
    0.9018   -0.6953   -0.2568 N   0  0  0  0  0  0  0  0  0  0  0  0
   -0.2275   -1.4873   -0.3794 C   0  0  0  0  0  0  0  0  0  0  0  0
   -0.2456   -2.5786   -0.9499 O   0  0  0  0  0  0  0  0  0  0  0  0
   -1.4367   -0.9385    0.3897 C   0  0  0  0  0  0  0  0  0  0  0  0
   -1.4065    0.5680    0.5498 C   0  0  0  0  0  0  0  0  0  0  0  0
   -0.1989    1.1875    0.7222 N   0  0  0  0  0  0  0  0  0  0  0  0
    0.9473    0.5850    0.2637 C   0  0  0  0  0  0  0  0  0  0  0  0
    2.2123    1.0382    0.1539 C   0  0  0  0  0  0  0  0  0  0  0  0
    2.6713    2.3108    0.5530 C   0  0  0  0  0  0  0  0  0  0  0  0
    3.0326    3.3627    0.8854 N   0  0  0  0  0  0  0  0  0  0  0  0
   -2.6332    1.0866    0.4488 C   0  0  0  0  0  0  0  0  0  0  0  0
   -3.6469    0.0287    0.1438 C   0  0  0  0  0  0  0  0  0  0  0  0
   -2.7837   -1.1605   -0.2906 C   0  0  0  0  0  0  0  0  0  0  0  0
    4.9757    0.8053   -0.3012 H   0  0  0  0  0  0  0  0  0  0  0  0
    4.8468   -0.8618   -1.0918 H   0  0  0  0  0  0  0  0  0  0  0  0
    2.4547   -1.9751   -0.6479 H   0  0  0  0  0  0  0  0  0  0  0  0
   -1.4257   -1.4026    1.3850 H   0  0  0  0  0  0  0  0  0  0  0  0
   -0.1951    2.2001    0.8084 H   0  0  0  0  0  0  0  0  0  0  0  0
   -2.8781    2.1360    0.5311 H   0  0  0  0  0  0  0  0  0  0  0  0
   -4.2352   -0.2026    1.0378 H   0  0  0  0  0  0  0  0  0  0  0  0
   -4.3238    0.3336   -0.6594 H   0  0  0  0  0  0  0  0  0  0  0  0
   -2.6768   -1.1704   -1.3834 H   0  0  0  0  0  0  0  0  0  0  0  0
   -3.2374   -2.1149   -0.0030 H   0  0  0  0  0  0  0  0  0  0  0  0
  1  2  2  3
  2  3  1  0
  3  4  1  0
  4  5  1  0
  5  6  2  0
  5  7  1  0
  7  8  1  0
  8  9  1  0
  9 10  1  0
 10 11  2  0
 11 12  1  0
 12 13  3  0
  8 14  2  0
 14 15  1  0
 15 16  1  0
 11  2  1  0
 10  4  1  0
 16  7  1  0
  1 17  1  0
  1 18  1  0
  3 19  1  0
  7 20  1  0
  9 21  1  0
 14 22  1  0
 15 23  1  0
 15 24  1  0
 16 25  1  0
 16 26  1  0
M  END
>  <enum_code>  
T

>  <uuid>  
5cddb777-44eb-4f12-b088-184dab734f8f

>  <sha256>  
39e1b0cb6462242f67993cb5678037f9b85a03408faf08abbd395fb60bce143b

>  <std_smi>  
Cc1nn2c(O)c3c(nc2c1C#N)CCC3

>  <enum_smi>  
C=C1NN2C(=O)C3CCC=C3NC2=C1C#N

$$$$
a50edc1e-3c8a-4b2b-abb6-21bafb8f7440
     RDKit          3D

 26 28  0  0  0  0  0  0  0  0999 V2000
    2.5416    2.4629    2.7267 C   0  0  0  0  0  0  0  0  0  0  0  0
    1.8694    1.6787    1.8788 C   0  0  0  0  0  0  0  0  0  0  0  0
    1.5518    0.3387    2.0648 N   0  0  0  0  0  0  0  0  0  0  0  0
    0.6494   -0.0036    1.0504 N   0  0  0  0  0  0  0  0  0  0  0  0
   -0.0112   -1.2079    0.9900 C   0  0  0  0  0  0  0  0  0  0  0  0
    0.1431   -2.1449    1.7677 O   0  0  0  0  0  0  0  0  0  0  0  0
   -1.0732   -1.1832   -0.0717 C   0  0  0  0  0  0  0  0  0  0  0  0
   -0.8140   -0.1814   -1.1611 C   0  0  0  0  0  0  0  0  0  0  0  0
   -0.1145    0.9030   -1.0358 N   0  0  0  0  0  0  0  0  0  0  0  0
    0.5562    1.0302    0.1487 C   0  0  0  0  0  0  0  0  0  0  0  0
    1.2840    2.0692    0.5939 C   0  0  0  0  0  0  0  0  0  0  0  0
    1.4632    3.3052   -0.0614 C   0  0  0  0  0  0  0  0  0  0  0  0
    1.6249    4.3391   -0.5652 N   0  0  0  0  0  0  0  0  0  0  0  0
   -1.4281   -0.5907   -2.4706 C   0  0  0  0  0  0  0  0  0  0  0  0
   -2.0126   -1.9622   -2.1298 C   0  0  0  0  0  0  0  0  0  0  0  0
   -1.2428   -2.4467   -0.8982 C   0  0  0  0  0  0  0  0  0  0  0  0
    2.9295    2.0695    3.6610 H   0  0  0  0  0  0  0  0  0  0  0  0
    2.7396    3.5094    2.5156 H   0  0  0  0  0  0  0  0  0  0  0  0
    1.2689    0.0756    3.0085 H   0  0  0  0  0  0  0  0  0  0  0  0
   -2.0218   -0.9096    0.4084 H   0  0  0  0  0  0  0  0  0  0  0  0
   -2.1917    0.1212   -2.7920 H   0  0  0  0  0  0  0  0  0  0  0  0
   -0.6422   -0.6665   -3.2278 H   0  0  0  0  0  0  0  0  0  0  0  0
   -3.0768   -1.8583   -1.8842 H   0  0  0  0  0  0  0  0  0  0  0  0
   -1.9330   -2.6615   -2.9675 H   0  0  0  0  0  0  0  0  0  0  0  0
   -0.2703   -2.8608   -1.1921 H   0  0  0  0  0  0  0  0  0  0  0  0
   -1.7894   -3.2253   -0.3571 H   0  0  0  0  0  0  0  0  0  0  0  0
  1  2  2  3
  2  3  1  0
  3  4  1  0
  4  5  1  0
  5  6  2  0
  5  7  1  0
  7  8  1  0
  8  9  2  0
  9 10  1  0
 10 11  2  0
 11 12  1  0
 12 13  3  0
  8 14  1  0
 14 15  1  0
 15 16  1  0
 11  2  1  0
 10  4  1  0
 16  7  1  0
  1 17  1  0
  1 18  1  0
  3 19  1  0
  7 20  1  0
 14 21  1  0
 14 22  1  0
 15 23  1  0
 15 24  1  0
 16 25  1  0
 16 26  1  0
M  END
>  <enum_code>  
T

>  <uuid>  
a50edc1e-3c8a-4b2b-abb6-21bafb8f7440

>  <sha256>  
39e1b0cb6462242f67993cb5678037f9b85a03408faf08abbd395fb60bce143b

>  <std_smi>  
Cc1nn2c(O)c3c(nc2c1C#N)CCC3

>  <enum_smi>  
C=C1NN2C(=O)C3CCCC3=NC2=C1C#N

$$$$
d50fb155-3a6a-4644-8778-0b5426e14769
     RDKit          3D

 26 28  0  0  0  0  0  0  0  0999 V2000
    4.3662    0.5491   -0.3901 C   0  0  0  0  0  0  0  0  0  0  0  0
    3.0388    0.3967   -0.3696 C   0  0  0  0  0  0  0  0  0  0  0  0
    2.0907    1.3702   -0.0640 N   0  0  0  0  0  0  0  0  0  0  0  0
    0.8669    0.7561    0.0377 N   0  0  0  0  0  0  0  0  0  0  0  0
   -0.3738    1.2914    0.3651 C   0  0  0  0  0  0  0  0  0  0  0  0
   -0.4118    2.6176    0.7374 O   0  0  0  0  0  0  0  0  0  0  0  0
   -1.4728    0.5065    0.3189 C   0  0  0  0  0  0  0  0  0  0  0  0
   -1.3685   -0.8992   -0.0749 C   0  0  0  0  0  0  0  0  0  0  0  0
   -0.1361   -1.4062   -0.3915 N   0  0  0  0  0  0  0  0  0  0  0  0
    0.9804   -0.6023   -0.3468 C   0  0  0  0  0  0  0  0  0  0  0  0
    2.2843   -0.8462   -0.6097 C   0  0  0  0  0  0  0  0  0  0  0  0
    2.8277   -2.0817   -1.0158 C   0  0  0  0  0  0  0  0  0  0  0  0
    3.2633   -3.1067   -1.3448 N   0  0  0  0  0  0  0  0  0  0  0  0
   -2.5689   -1.4784   -0.0550 C   0  0  0  0  0  0  0  0  0  0  0  0
   -3.6424   -0.5219    0.3604 C   0  0  0  0  0  0  0  0  0  0  0  0
   -2.9094    0.8043    0.6154 C   0  0  0  0  0  0  0  0  0  0  0  0
    5.0398   -0.2697   -0.6211 H   0  0  0  0  0  0  0  0  0  0  0  0
    4.8160    1.5150   -0.1851 H   0  0  0  0  0  0  0  0  0  0  0  0
    2.3385    2.0036    0.6922 H   0  0  0  0  0  0  0  0  0  0  0  0
   -1.3408    2.8577    0.8752 H   0  0  0  0  0  0  0  0  0  0  0  0
   -0.0524   -2.3724   -0.6772 H   0  0  0  0  0  0  0  0  0  0  0  0
   -2.7600   -2.5116   -0.3055 H   0  0  0  0  0  0  0  0  0  0  0  0
   -4.3915   -0.4112   -0.4305 H   0  0  0  0  0  0  0  0  0  0  0  0
   -4.1465   -0.8727    1.2669 H   0  0  0  0  0  0  0  0  0  0  0  0
   -3.0415    1.1225    1.6552 H   0  0  0  0  0  0  0  0  0  0  0  0
   -3.2962    1.5897   -0.0431 H   0  0  0  0  0  0  0  0  0  0  0  0
  1  2  2  3
  2  3  1  0
  3  4  1  0
  4  5  1  0
  5  6  1  0
  5  7  2  0
  7  8  1  0
  8  9  1  0
  9 10  1  0
 10 11  2  0
 11 12  1  0
 12 13  3  0
  8 14  2  0
 14 15  1  0
 15 16  1  0
 11  2  1  0
 10  4  1  0
 16  7  1  0
  1 17  1  0
  1 18  1  0
  3 19  1  0
  6 20  1  0
  9 21  1  0
 14 22  1  0
 15 23  1  0
 15 24  1  0
 16 25  1  0
 16 26  1  0
M  END
>  <enum_code>  
T

>  <uuid>  
d50fb155-3a6a-4644-8778-0b5426e14769

>  <sha256>  
39e1b0cb6462242f67993cb5678037f9b85a03408faf08abbd395fb60bce143b

>  <std_smi>  
Cc1nn2c(O)c3c(nc2c1C#N)CCC3

>  <enum_smi>  
C=C1NN2C(O)=C3CCC=C3NC2=C1C#N

$$$$
91181622-e44b-4288-aa7b-809b33940e56
     RDKit          3D

 26 28  0  0  0  0  0  0  0  0999 V2000
   -4.2107    1.3103   -0.8252 C   0  0  0  0  0  0  0  0  0  0  0  0
   -2.9396    1.0069   -0.5458 C   0  0  0  0  0  0  0  0  0  0  0  0
   -1.8109    1.3892   -1.2690 N   0  0  0  0  0  0  0  0  0  0  0  0
   -0.7334    0.7073   -0.7620 N   0  0  0  0  0  0  0  0  0  0  0  0
    0.5939    0.7344   -1.1393 C   0  0  0  0  0  0  0  0  0  0  0  0
    0.9275    1.4547   -2.2635 O   0  0  0  0  0  0  0  0  0  0  0  0
    1.4907    0.0649   -0.4015 C   0  0  0  0  0  0  0  0  0  0  0  0
    0.9523   -0.6985    0.7729 C   0  0  0  0  0  0  0  0  0  0  0  0
   -0.2758   -0.7521    1.1860 N   0  0  0  0  0  0  0  0  0  0  0  0
   -1.1198   -0.0116    0.3897 C   0  0  0  0  0  0  0  0  0  0  0  0
   -2.4514    0.1548    0.5543 C   0  0  0  0  0  0  0  0  0  0  0  0
   -3.2420   -0.4049    1.5795 C   0  0  0  0  0  0  0  0  0  0  0  0
   -3.9325   -0.8490    2.4018 N   0  0  0  0  0  0  0  0  0  0  0  0
    2.0726   -1.4274    1.4509 C   0  0  0  0  0  0  0  0  0  0  0  0
    3.1362   -1.4512    0.3490 C   0  0  0  0  0  0  0  0  0  0  0  0
    2.9556   -0.1692   -0.4709 C   0  0  0  0  0  0  0  0  0  0  0  0
   -5.0366    0.9542   -0.2174 H   0  0  0  0  0  0  0  0  0  0  0  0
   -4.4583    1.9412   -1.6724 H   0  0  0  0  0  0  0  0  0  0  0  0
   -1.9190    1.3812   -2.2808 H   0  0  0  0  0  0  0  0  0  0  0  0
    1.8930    1.4435   -2.3576 H   0  0  0  0  0  0  0  0  0  0  0  0
    1.7748   -2.4332    1.7569 H   0  0  0  0  0  0  0  0  0  0  0  0
    2.4014   -0.8517    2.3215 H   0  0  0  0  0  0  0  0  0  0  0  0
    4.1467   -1.5331    0.7616 H   0  0  0  0  0  0  0  0  0  0  0  0
    2.9741   -2.3248   -0.2963 H   0  0  0  0  0  0  0  0  0  0  0  0
    3.3198   -0.2977   -1.4939 H   0  0  0  0  0  0  0  0  0  0  0  0
    3.4914    0.6618    0.0003 H   0  0  0  0  0  0  0  0  0  0  0  0
  1  2  2  3
  2  3  1  0
  3  4  1  0
  4  5  1  0
  5  6  1  0
  5  7  2  0
  7  8  1  0
  8  9  2  0
  9 10  1  0
 10 11  2  0
 11 12  1  0
 12 13  3  0
  8 14  1  0
 14 15  1  0
 15 16  1  0
 11  2  1  0
 10  4  1  0
 16  7  1  0
  1 17  1  0
  1 18  1  0
  3 19  1  0
  6 20  1  0
 14 21  1  0
 14 22  1  0
 15 23  1  0
 15 24  1  0
 16 25  1  0
 16 26  1  0
M  END
>  <enum_code>  
T

>  <uuid>  
91181622-e44b-4288-aa7b-809b33940e56

>  <sha256>  
39e1b0cb6462242f67993cb5678037f9b85a03408faf08abbd395fb60bce143b

>  <std_smi>  
Cc1nn2c(O)c3c(nc2c1C#N)CCC3

>  <enum_smi>  
C=C1NN2C(O)=C3CCCC3=NC2=C1C#N

$$$$
