1-pyrimethamine
  Cerius2 12180216023D 1   1.00000
 Structure written by MMmdl.
 30 31  0  0  0  0  0  0  0  0999 V2000
   -2.8357    0.2028    0.4209 N   0  0  0  0  0  0
   -2.8255   -1.1104    0.1969 C   0  0  0  0  0  0
   -1.7271   -1.8218   -0.0537 N   0  0  0  0  0  0
   -0.5417   -1.1654   -0.0884 C   0  0  0  0  0  0
   -0.4439    0.2086    0.1358 C   0  0  0  0  0  0
   -1.6550    0.8467    0.4052 C   0  0  0  0  0  0
    0.8362    0.9302    0.0951 C   0  0  0  0  0  0
    1.6327    1.0444    1.2466 C   0  0  0  0  0  0
    2.8536    1.7244    1.2069 C   0  0  0  0  0  0
    3.2885    2.2979    0.0146 C   0  0  0  0  0  0
    2.5126    2.1980   -1.1375 C   0  0  0  0  0  0
    1.2918    1.5178   -1.0966 C   0  0  0  0  0  0
   -4.0141   -1.7715    0.2232 N   0  0  0  0  0  0
   -1.7348    2.2137    0.6034 N   0  0  0  0  0  0
    4.7918    3.1344   -0.0351 Cl  0  0  0  0  0  0
    0.4261   -3.4744   -0.6318 C   0  0  0  0  0  0
    0.6932   -1.9936   -0.3864 C   0  0  0  0  0  0
    1.3065    0.6014    2.1872 H   0  0  0  0  0  0
    3.4548    1.8000    2.1100 H   0  0  0  0  0  0
    2.8462    2.6451   -2.0710 H   0  0  0  0  0  0
    0.6948    1.4500   -2.0056 H   0  0  0  0  0  0
   -4.0348   -2.7663    0.0556 H   0  0  0  0  0  0
   -4.8657   -1.2631    0.4089 H   0  0  0  0  0  0
   -0.9674    2.6820    1.0738 H   0  0  0  0  0  0
   -2.6605    2.5780    0.8038 H   0  0  0  0  0  0
    1.3655   -3.9964   -0.8406 H   0  0  0  0  0  0
   -0.2391   -3.6219   -1.4893 H   0  0  0  0  0  0
   -0.0337   -3.9462    0.2432 H   0  0  0  0  0  0
    1.3880   -1.9081    0.4572 H   0  0  0  0  0  0
    1.1868   -1.5858   -1.2763 H   0  0  0  0  0  0
  1  2  2  0  0  0
  1  6  1  0  0  0
  2  3  1  0  0  0
  2 13  1  0  0  0
  3  4  2  0  0  0
  4  5  1  0  0  0
  4 17  1  0  0  0
  5  6  2  0  0  0
  5  7  1  0  0  0
  6 14  1  0  0  0
  7  8  2  0  0  0
  7 12  1  0  0  0
  8  9  1  0  0  0
  8 18  1  0  0  0
  9 10  2  0  0  0
  9 19  1  0  0  0
 10 11  1  0  0  0
 10 15  1  0  0  0
 11 12  2  0  0  0
 11 20  1  0  0  0
 12 21  1  0  0  0
 13 22  1  0  0  0
 13 23  1  0  0  0
 14 24  1  0  0  0
 14 25  1  0  0  0
 16 17  1  0  0  0
 16 26  1  0  0  0
 16 27  1  0  0  0
 16 28  1  0  0  0
 17 29  1  0  0  0
 17 30  1  0  0  0
M  END
>  <Name>
1-pyrimethamine

>  <Family>
A

>  <PC_uM>
3.7

>  <TG_uM>
0.39

>  <RL_uM>
2.3

>  <set>
1

$$$$
1-3062
  Cerius2 12180216023D 1   1.00000
 Structure written by MMmdl.
 30 31  0  0  0  0  0  0  0  0999 V2000
   -2.8168    0.2065    0.4735 N   0  0  0  0  0  0
   -2.8206   -1.1045    0.2371 C   0  0  0  0  0  0
   -1.7327   -1.8208   -0.0438 N   0  0  0  0  0  0
   -0.5439   -1.1720   -0.0988 C   0  0  0  0  0  0
   -0.4317    0.1989    0.1374 C   0  0  0  0  0  0
   -1.6324    0.8424    0.4390 C   0  0  0  0  0  0
    0.8521    0.9130    0.0752 C   0  0  0  0  0  0
    1.6858    0.9917    1.2029 C   0  0  0  0  0  0
    2.9119    1.6650    1.1430 C   0  0  0  0  0  0
    3.3184    2.2713   -0.0498 C   0  0  0  0  0  0
    2.4965    2.2018   -1.1763 C   0  0  0  0  0  0
    1.2730    1.5284   -1.1135 C   0  0  0  0  0  0
   -4.0128   -1.7579    0.2830 N   0  0  0  0  0  0
   -1.6980    2.2076    0.6534 N   0  0  0  0  0  0
    4.8189    3.1175   -0.1945 Cl  0  0  0  0  0  0
    0.3929   -3.4780   -0.7058 C   0  0  0  0  0  0
    0.6782   -2.0057   -0.4320 C   0  0  0  0  0  0
    3.8777    1.7088    2.5773 Cl  0  0  0  0  0  0
    1.3763    0.5224    2.1357 H   0  0  0  0  0  0
    2.7982    2.6697   -2.1110 H   0  0  0  0  0  0
    0.6467    1.4886   -2.0046 H   0  0  0  0  0  0
   -4.0437   -2.7510    0.1067 H   0  0  0  0  0  0
   -4.8568   -1.2458    0.4914 H   0  0  0  0  0  0
   -0.9218    2.6660    1.1184 H   0  0  0  0  0  0
   -2.6181    2.5747    0.8742 H   0  0  0  0  0  0
    1.3238   -4.0040   -0.9412 H   0  0  0  0  0  0
   -0.2872   -3.5999   -1.5556 H   0  0  0  0  0  0
   -0.0575   -3.9650    0.1657 H   0  0  0  0  0  0
    1.3854   -1.9447    0.4035 H   0  0  0  0  0  0
    1.1636   -1.5839   -1.3199 H   0  0  0  0  0  0
  1  2  2  0  0  0
  1  6  1  0  0  0
  2  3  1  0  0  0
  2 13  1  0  0  0
  3  4  2  0  0  0
  4  5  1  0  0  0
  4 17  1  0  0  0
  5  6  2  0  0  0
  5  7  1  0  0  0
  6 14  1  0  0  0
  7  8  2  0  0  0
  7 12  1  0  0  0
  8  9  1  0  0  0
  8 19  1  0  0  0
  9 10  2  0  0  0
  9 18  1  0  0  0
 10 11  1  0  0  0
 10 15  1  0  0  0
 11 12  2  0  0  0
 11 20  1  0  0  0
 12 21  1  0  0  0
 13 22  1  0  0  0
 13 23  1  0  0  0
 14 24  1  0  0  0
 14 25  1  0  0  0
 16 17  1  0  0  0
 16 26  1  0  0  0
 16 27  1  0  0  0
 16 28  1  0  0  0
 17 29  1  0  0  0
 17 30  1  0  0  0
M  END
>  <Name>
1-3062

>  <Family>
A

>  <PC_uM>
1.08

>  <TG_uM>
0.094

>  <RL_uM>
0.19

>  <set>
0

$$$$
1-7364
  Cerius2 12180216023D 1   1.00000
 Structure written by MMmdl.
 27 28  0  0  0  0  0  0  0  0999 V2000
   -2.7897   -0.3579    0.5077 N   0  0  0  0  0  0
   -2.8038   -1.6260    0.0973 C   0  0  0  0  0  0
   -1.7302   -2.2898   -0.3303 N   0  0  0  0  0  0
   -0.5505   -1.6232   -0.3512 C   0  0  0  0  0  0
   -0.4246   -0.2980    0.0588 C   0  0  0  0  0  0
   -1.6095    0.2884    0.5017 C   0  0  0  0  0  0
    0.8560    0.4222    0.0267 C   0  0  0  0  0  0
    1.7528    0.3416    1.1048 C   0  0  0  0  0  0
    2.9770    1.0201    1.0719 C   0  0  0  0  0  0
    3.3185    1.7913   -0.0436 C   0  0  0  0  0  0
    2.4338    1.8805   -1.1200 C   0  0  0  0  0  0
    1.2124    1.2015   -1.0843 C   0  0  0  0  0  0
   -3.9916   -2.2886    0.1130 N   0  0  0  0  0  0
   -1.6671    1.6118    0.9004 N   0  0  0  0  0  0
    4.8129    2.6537   -0.1514 Cl  0  0  0  0  0  0
    0.6285   -2.4088   -0.8541 C   0  0  0  0  0  0
    4.0227    0.8619    2.4406 Cl  0  0  0  0  0  0
    1.4941   -0.2567    1.9774 H   0  0  0  0  0  0
    2.6846    2.4775   -1.9943 H   0  0  0  0  0  0
    0.5366    1.2869   -1.9351 H   0  0  0  0  0  0
   -4.0319   -3.2493   -0.1933 H   0  0  0  0  0  0
   -4.8246   -1.8151    0.4297 H   0  0  0  0  0  0
   -0.8692    2.0105    1.3833 H   0  0  0  0  0  0
   -2.5755    1.9387    1.2133 H   0  0  0  0  0  0
    1.3884   -2.5051   -0.0727 H   0  0  0  0  0  0
    1.0654   -1.9276   -1.7346 H   0  0  0  0  0  0
    0.3231   -3.4194   -1.1462 H   0  0  0  0  0  0
  1  2  2  0  0  0
  1  6  1  0  0  0
  2  3  1  0  0  0
  2 13  1  0  0  0
  3  4  2  0  0  0
  4  5  1  0  0  0
  4 16  1  0  0  0
  5  6  2  0  0  0
  5  7  1  0  0  0
  6 14  1  0  0  0
  7  8  2  0  0  0
  7 12  1  0  0  0
  8  9  1  0  0  0
  8 18  1  0  0  0
  9 10  2  0  0  0
  9 17  1  0  0  0
 10 11  1  0  0  0
 10 15  1  0  0  0
 11 12  2  0  0  0
 11 19  1  0  0  0
 12 20  1  0  0  0
 13 21  1  0  0  0
 13 22  1  0  0  0
 14 23  1  0  0  0
 14 24  1  0  0  0
 16 25  1  0  0  0
 16 26  1  0  0  0
 16 27  1  0  0  0
M  END
>  <Name>
1-7364

>  <Family>
A

>  <PC_uM>
1.68

>  <TG_uM>
3.7

>  <RL_uM>
0.32

>  <set>
1

$$$$
1-115194
  Cerius2 12180216023D 1   1.00000
 Structure written by MMmdl.
 34 35  0  0  0  0  0  0  0  0999 V2000
   -2.8219    1.2481    0.3730 N   0  0  0  0  0  0
   -2.8031   -0.0796    0.2653 C   0  0  0  0  0  0
   -1.6963   -0.8044    0.1166 N   0  0  0  0  0  0
   -0.5088   -0.1451    0.0663 C   0  0  0  0  0  0
   -0.4221    1.2434    0.1730 C   0  0  0  0  0  0
   -1.6433    1.8950    0.3426 C   0  0  0  0  0  0
    0.8570    1.9657    0.1122 C   0  0  0  0  0  0
    1.6036    2.2045    1.2779 C   0  0  0  0  0  0
    2.8253    2.8861    1.2204 C   0  0  0  0  0  0
    3.3156    3.3387   -0.0086 C   0  0  0  0  0  0
    2.5810    3.1082   -1.1734 C   0  0  0  0  0  0
    1.3612    2.4280   -1.1128 C   0  0  0  0  0  0
   -3.9914   -0.7400    0.3078 N   0  0  0  0  0  0
   -1.7332    3.2733    0.4165 N   0  0  0  0  0  0
    4.8159    4.1852   -0.1528 Cl  0  0  0  0  0  0
    3.6803    3.1336    2.7035 Cl  0  0  0  0  0  0
    0.7490   -0.9816   -0.1165 C   0  0  0  0  0  0
    0.4478   -2.3854   -0.2155 O   0  0  0  0  0  0
    1.2558   -4.6175   -0.4815 C   0  0  0  0  0  0
    1.6414   -3.1554   -0.3803 C   0  0  0  0  0  0
    1.2285    1.8568    2.2397 H   0  0  0  0  0  0
    2.9483    3.4559   -2.1367 H   0  0  0  0  0  0
    0.8035    2.2640   -2.0348 H   0  0  0  0  0  0
   -4.0063   -1.7457    0.2265 H   0  0  0  0  0  0
   -4.8493   -0.2203    0.4179 H   0  0  0  0  0  0
   -0.9896    3.7879    0.8758 H   0  0  0  0  0  0
   -2.6677    3.6472    0.5473 H   0  0  0  0  0  0
    1.4085   -0.8287    0.7453 H   0  0  0  0  0  0
    1.2553   -0.6711   -1.0375 H   0  0  0  0  0  0
    2.1412   -5.2470   -0.6067 H   0  0  0  0  0  0
    0.5830   -4.7808   -1.3299 H   0  0  0  0  0  0
    0.7183   -4.9377    0.4172 H   0  0  0  0  0  0
    2.3012   -3.0026    0.4807 H   0  0  0  0  0  0
    2.1600   -2.8425   -1.2932 H   0  0  0  0  0  0
  1  2  2  0  0  0
  1  6  1  0  0  0
  2  3  1  0  0  0
  2 13  1  0  0  0
  3  4  2  0  0  0
  4  5  1  0  0  0
  4 17  1  0  0  0
  5  6  2  0  0  0
  5  7  1  0  0  0
  6 14  1  0  0  0
  7  8  2  0  0  0
  7 12  1  0  0  0
  8  9  1  0  0  0
  8 21  1  0  0  0
  9 10  2  0  0  0
  9 16  1  0  0  0
 10 11  1  0  0  0
 10 15  1  0  0  0
 11 12  2  0  0  0
 11 22  1  0  0  0
 12 23  1  0  0  0
 13 24  1  0  0  0
 13 25  1  0  0  0
 14 26  1  0  0  0
 14 27  1  0  0  0
 17 18  1  0  0  0
 17 28  1  0  0  0
 17 29  1  0  0  0
 18 20  1  0  0  0
 19 20  1  0  0  0
 19 30  1  0  0  0
 19 31  1  0  0  0
 19 32  1  0  0  0
 20 33  1  0  0  0
 20 34  1  0  0  0
M  END
>  <Name>
1-115194

>  <Family>
A

>  <PC_uM>
12.7

>  <TG_uM>
0.08

>  <RL_uM>
0.093

>  <set>
1

$$$$
1-118203
  Cerius2 12180216023D 1   1.00000
 Structure written by MMmdl.
 40 42  0  0  0  0  0  0  0  0999 V2000
   -3.0859    1.5420    1.8148 N   0  0  0  0  0  0
   -3.0422    0.2476    1.5018 C   0  0  0  0  0  0
   -1.9487   -0.3865    1.0827 N   0  0  0  0  0  0
   -0.8032    0.3352    0.9690 C   0  0  0  0  0  0
   -0.7461    1.6973    1.2682 C   0  0  0  0  0  0
   -1.9470    2.2501    1.7112 C   0  0  0  0  0  0
    0.4884    2.4840    1.1352 C   0  0  0  0  0  0
    1.2990    2.7369    2.2541 C   0  0  0  0  0  0
    2.4831    3.4690    2.1284 C   0  0  0  0  0  0
    2.8682    3.9532    0.8809 C   0  0  0  0  0  0
    2.0795    3.7123   -0.2409 C   0  0  0  0  0  0
    0.8935    2.9830   -0.1135 C   0  0  0  0  0  0
   -4.1871   -0.4766    1.6170 N   0  0  0  0  0  0
   -2.0684    3.5974    2.0022 N   0  0  0  0  0  0
    4.3289    4.8498    0.7247 Cl  0  0  0  0  0  0
    0.4437   -0.3947    0.4888 C   0  0  0  0  0  0
    0.1967   -1.8011    0.3372 O   0  0  0  0  0  0
    1.2523   -2.5723   -0.0677 C   0  0  0  0  0  0
    0.9736   -3.9402   -0.1572 C   0  0  0  0  0  0
    1.9590   -4.8480   -0.5574 C   0  0  0  0  0  0
    3.2378   -4.3786   -0.8726 C   0  0  0  0  0  0
    3.5274   -3.0106   -0.7901 C   0  0  0  0  0  0
    2.5324   -2.1107   -0.3857 C   0  0  0  0  0  0
    4.2800   -5.3236   -1.2916 N   0  3  0  0  0  0
    4.0374   -6.5432   -1.2121 O   0  0  0  0  0  0
    5.3610   -4.8662   -1.7082 O   0  5  0  0  0  0
    1.0137    2.3616    3.2369 H   0  0  0  0  0  0
    3.0958    3.6516    3.0082 H   0  0  0  0  0  0
    2.3776    4.0832   -1.2187 H   0  0  0  0  0  0
    0.2867    2.8057   -1.0009 H   0  0  0  0  0  0
   -4.1795   -1.4600    1.3886 H   0  0  0  0  0  0
   -5.0308   -0.0333    1.9497 H   0  0  0  0  0  0
   -2.9816    3.9014    2.3242 H   0  0  0  0  0  0
   -1.2771    4.0797    2.4150 H   0  0  0  0  0  0
    1.2357   -0.2524    1.2337 H   0  0  0  0  0  0
    0.7336    0.0249   -0.4811 H   0  0  0  0  0  0
   -0.0225   -4.3080    0.0862 H   0  0  0  0  0  0
    1.7099   -5.9049   -0.6182 H   0  0  0  0  0  0
    4.5164   -2.6262   -1.0326 H   0  0  0  0  0  0
    2.7987   -1.0581   -0.3340 H   0  0  0  0  0  0
  1  2  2  0  0  0
  1  6  1  0  0  0
  2  3  1  0  0  0
  2 13  1  0  0  0
  3  4  2  0  0  0
  4  5  1  0  0  0
  4 16  1  0  0  0
  5  6  2  0  0  0
  5  7  1  0  0  0
  6 14  1  0  0  0
  7  8  2  0  0  0
  7 12  1  0  0  0
  8  9  1  0  0  0
  8 27  1  0  0  0
  9 10  2  0  0  0
  9 28  1  0  0  0
 10 11  1  0  0  0
 10 15  1  0  0  0
 11 12  2  0  0  0
 11 29  1  0  0  0
 12 30  1  0  0  0
 13 31  1  0  0  0
 13 32  1  0  0  0
 14 33  1  0  0  0
 14 34  1  0  0  0
 16 17  1  0  0  0
 16 35  1  0  0  0
 16 36  1  0  0  0
 17 18  1  0  0  0
 18 19  2  0  0  0
 18 23  1  0  0  0
 19 20  1  0  0  0
 19 37  1  0  0  0
 20 21  2  0  0  0
 20 38  1  0  0  0
 21 22  1  0  0  0
 21 24  1  0  0  0
 22 23  2  0  0  0
 22 39  1  0  0  0
 23 40  1  0  0  0
 24 25  2  0  0  0
 24 26  1  0  0  0
M  CHG  2  24   1  26  -1
M  END
>  <Name>
1-118203

>  <Family>
A

>  <PC_uM>
85.1

>  <TG_uM>
1.37

>  <RL_uM>
42.5

>  <set>
2

$$$$
1-125357
  Cerius2 12180216023D 1   1.00000
 Structure written by MMmdl.
 41 43  0  0  0  0  0  0  0  0999 V2000
   -2.7222    2.5877    0.3440 N   0  0  0  0  0  0
   -2.6442    1.2986    0.6661 C   0  0  0  0  0  0
   -1.5101    0.6062    0.7179 N   0  0  0  0  0  0
   -0.3602    1.2576    0.4211 C   0  0  0  0  0  0
   -0.3262    2.6083    0.0766 C   0  0  0  0  0  0
   -1.5759    3.2294    0.0552 C   0  0  0  0  0  0
    0.9125    3.3402   -0.2324 C   0  0  0  0  0  0
    1.7040    3.8776    0.7970 C   0  0  0  0  0  0
    2.8850    4.5714    0.5066 C   0  0  0  0  0  0
    3.2881    4.7380   -0.8221 C   0  0  0  0  0  0
    2.5084    4.2100   -1.8531 C   0  0  0  0  0  0
    1.3304    3.5163   -1.5604 C   0  0  0  0  0  0
   -3.7999    0.6447    0.9634 N   0  0  0  0  0  0
   -1.7143    4.5818   -0.2629 N   0  0  0  0  0  0
    4.7337    5.5825   -1.2532 Cl  0  0  0  0  0  0
    3.8010    5.1957    1.8345 Cl  0  0  0  0  0  0
    0.8599    0.4203    0.4772 C   0  0  0  0  0  0
    0.8921   -0.8592    0.8916 C   0  0  0  0  0  0
    2.1400   -1.6974    0.9329 C   0  0  0  0  0  0
    2.0282   -2.9337    0.0697 C   0  0  0  0  0  0
    2.2494   -2.8573   -1.3133 C   0  0  0  0  0  0
    2.1281   -3.9948   -2.1135 C   0  0  0  0  0  0
    1.7815   -5.2176   -1.5411 C   0  0  0  0  0  0
    1.5533   -5.3045   -0.1690 C   0  0  0  0  0  0
    1.6732   -4.1681    0.6332 C   0  0  0  0  0  0
    1.3968    3.7526    1.8346 H   0  0  0  0  0  0
    2.8090    4.3323   -2.8917 H   0  0  0  0  0  0
    0.7402    3.1123   -2.3826 H   0  0  0  0  0  0
   -3.7705   -0.3325    1.2130 H   0  0  0  0  0  0
   -4.6781    1.1403    0.9328 H   0  0  0  0  0  0
   -1.3963    4.8113   -1.2035 H   0  0  0  0  0  0
   -1.2433    5.2019    0.3945 H   0  0  0  0  0  0
    1.7863    0.8853    0.1499 H   0  0  0  0  0  0
   -0.0183   -1.3510    1.2316 H   0  0  0  0  0  0
    2.3338   -1.9887    1.9728 H   0  0  0  0  0  0
    3.0195   -1.1218    0.6165 H   0  0  0  0  0  0
    2.5148   -1.9068   -1.7748 H   0  0  0  0  0  0
    2.3011   -3.9260   -3.1861 H   0  0  0  0  0  0
    1.6847   -6.1034   -2.1664 H   0  0  0  0  0  0
    1.2781   -6.2585    0.2772 H   0  0  0  0  0  0
    1.4851   -4.2515    1.7032 H   0  0  0  0  0  0
  1  2  2  0  0  0
  1  6  1  0  0  0
  2  3  1  0  0  0
  2 13  1  0  0  0
  3  4  2  0  0  0
  4  5  1  0  0  0
  4 17  1  0  0  0
  5  6  2  0  0  0
  5  7  1  0  0  0
  6 14  1  0  0  0
  7  8  2  0  0  0
  7 12  1  0  0  0
  8  9  1  0  0  0
  8 26  1  0  0  0
  9 10  2  0  0  0
  9 16  1  0  0  0
 10 11  1  0  0  0
 10 15  1  0  0  0
 11 12  2  0  0  0
 11 27  1  0  0  0
 12 28  1  0  0  0
 13 29  1  0  0  0
 13 30  1  0  0  0
 14 31  1  0  0  0
 14 32  1  0  0  0
 17 18  2  0  0  0
 17 33  1  0  0  0
 18 19  1  0  0  0
 18 34  1  0  0  0
 19 20  1  0  0  0
 19 35  1  0  0  0
 19 36  1  0  0  0
 20 21  2  0  0  0
 20 25  1  0  0  0
 21 22  1  0  0  0
 21 37  1  0  0  0
 22 23  2  0  0  0
 22 38  1  0  0  0
 23 24  1  0  0  0
 23 39  1  0  0  0
 24 25  2  0  0  0
 24 40  1  0  0  0
 25 41  1  0  0  0
M  END
>  <Name>
1-125357

>  <Family>
A

>  <PC_uM>
0.5

>  <TG_uM>
0.056

>  <RL_uM>
0.088

>  <set>
1

$$$$
1-125358
  Cerius2 12180216023D 1   1.00000
 Structure written by MMmdl.
 38 40  0  0  0  0  0  0  0  0999 V2000
   -3.4666    1.2652    0.4012 N   0  0  0  0  0  0
   -3.5649   -0.0619    0.3380 C   0  0  0  0  0  0
   -2.5424   -0.8797    0.0949 N   0  0  0  0  0  0
   -1.3195   -0.3184   -0.0943 C   0  0  0  0  0  0
   -1.1092    1.0606   -0.0482 C   0  0  0  0  0  0
   -2.2561    1.8150    0.1947 C   0  0  0  0  0  0
    0.2160    1.6713   -0.2356 C   0  0  0  0  0  0
    0.7437    1.8696   -1.5221 C   0  0  0  0  0  0
    2.0186    2.4215   -1.6973 C   0  0  0  0  0  0
    2.7806    2.7894   -0.5838 C   0  0  0  0  0  0
    2.2618    2.6084    0.6992 C   0  0  0  0  0  0
    0.9896    2.0556    0.8707 C   0  0  0  0  0  0
   -4.7886   -0.6218    0.5340 N   0  0  0  0  0  0
   -2.2154    3.1927    0.3109 N   0  0  0  0  0  0
    4.3628    3.4705   -0.7277 Cl  0  0  0  0  0  0
   -0.1821   -1.2891   -0.3443 C   0  0  0  0  0  0
    0.6900   -1.2890    0.7923 O   0  0  0  0  0  0
    1.9317   -1.8295    0.6036 C   0  0  0  0  0  0
    2.8823   -1.4740    1.5643 C   0  0  0  0  0  0
    4.1883   -1.9600    1.4833 C   0  0  0  0  0  0
    4.5478   -2.8137    0.4433 C   0  0  0  0  0  0
    3.6000   -3.1830   -0.5100 C   0  0  0  0  0  0
    2.2919   -2.6955   -0.4296 C   0  0  0  0  0  0
    2.5953    2.6171   -3.3163 Cl  0  0  0  0  0  0
    0.1582    1.5860   -2.3956 H   0  0  0  0  0  0
    2.8412    2.8908    1.5756 H   0  0  0  0  0  0
    0.6074    1.9170    1.8820 H   0  0  0  0  0  0
   -4.8925   -1.6247    0.4925 H   0  0  0  0  0  0
   -5.5848   -0.0307    0.7211 H   0  0  0  0  0  0
   -1.5621    3.7118   -0.2659 H   0  0  0  0  0  0
   -3.1068    3.6476    0.4791 H   0  0  0  0  0  0
    0.3391   -0.9994   -1.2648 H   0  0  0  0  0  0
   -0.5914   -2.2982   -0.4768 H   0  0  0  0  0  0
    2.6100   -0.8059    2.3796 H   0  0  0  0  0  0
    4.9237   -1.6720    2.2322 H   0  0  0  0  0  0
    5.5651   -3.1955    0.3773 H   0  0  0  0  0  0
    3.8783   -3.8571   -1.3186 H   0  0  0  0  0  0
    1.5798   -3.0211   -1.1831 H   0  0  0  0  0  0
  1  2  2  0  0  0
  1  6  1  0  0  0
  2  3  1  0  0  0
  2 13  1  0  0  0
  3  4  2  0  0  0
  4  5  1  0  0  0
  4 16  1  0  0  0
  5  6  2  0  0  0
  5  7  1  0  0  0
  6 14  1  0  0  0
  7  8  2  0  0  0
  7 12  1  0  0  0
  8  9  1  0  0  0
  8 25  1  0  0  0
  9 10  2  0  0  0
  9 24  1  0  0  0
 10 11  1  0  0  0
 10 15  1  0  0  0
 11 12  2  0  0  0
 11 26  1  0  0  0
 12 27  1  0  0  0
 13 28  1  0  0  0
 13 29  1  0  0  0
 14 30  1  0  0  0
 14 31  1  0  0  0
 16 17  1  0  0  0
 16 32  1  0  0  0
 16 33  1  0  0  0
 17 18  1  0  0  0
 18 19  2  0  0  0
 18 23  1  0  0  0
 19 20  1  0  0  0
 19 34  1  0  0  0
 20 21  2  0  0  0
 20 35  1  0  0  0
 21 22  1  0  0  0
 21 36  1  0  0  0
 22 23  2  0  0  0
 22 37  1  0  0  0
 23 38  1  0  0  0
M  END
>  <Name>
1-125358

>  <Family>
A

>  <PC_uM>
13.5

>  <TG_uM>
0.11

>  <RL_uM>
1.28

>  <set>
1

$$$$
1-125359
  Cerius2 12180216023D 1   1.00000
 Structure written by MMmdl.
 44 47  0  0  0  0  0  0  0  0999 V2000
   -4.0047    1.3055    0.7921 N   0  0  0  0  0  0
   -4.0763   -0.0218    0.8803 C   0  0  0  0  0  0
   -3.0995   -0.8516    0.5194 N   0  0  0  0  0  0
   -1.9539   -0.3030    0.0364 C   0  0  0  0  0  0
   -1.7763    1.0755   -0.0949 C   0  0  0  0  0  0
   -2.8744    1.8411    0.2961 C   0  0  0  0  0  0
   -0.5300    1.6761   -0.5976 C   0  0  0  0  0  0
   -0.2277    1.6761   -1.9694 C   0  0  0  0  0  0
    0.9785    2.2105   -2.4393 C   0  0  0  0  0  0
    1.8964    2.7625   -1.5406 C   0  0  0  0  0  0
    1.5992    2.7861   -0.1775 C   0  0  0  0  0  0
    0.3947    2.2506    0.2879 C   0  0  0  0  0  0
   -5.2210   -0.5688    1.3700 N   0  0  0  0  0  0
   -2.8525    3.2237    0.2644 N   0  0  0  0  0  0
    3.4075    3.4287   -2.0507 Cl  0  0  0  0  0  0
   -0.8631   -1.2875   -0.3370 C   0  0  0  0  0  0
    1.2753    2.1508   -4.1424 Cl  0  0  0  0  0  0
    1.4241   -1.6816    0.2335 C   0  0  0  0  0  0
    1.5963   -2.6069   -0.8017 C   0  0  0  0  0  0
    2.8736   -3.0396   -1.1514 C   0  0  0  0  0  0
    3.9873   -2.5610   -0.4650 C   0  0  0  0  0  0
    3.8412   -1.6509    0.5911 C   0  0  0  0  0  0
    2.5471   -1.2063    0.9595 C   0  0  0  0  0  0
    4.9675   -1.1796    1.2863 C   0  0  0  0  0  0
    4.8330   -0.2786    2.3422 C   0  0  0  0  0  0
    3.5702    0.1606    2.7195 C   0  0  0  0  0  0
    2.4416   -0.2994    2.0379 C   0  0  0  0  0  0
    0.1953   -1.2040    0.6248 O   0  0  0  0  0  0
   -0.9353    1.2484   -2.6783 H   0  0  0  0  0  0
    2.3012    3.2131    0.5354 H   0  0  0  0  0  0
    0.1873    2.2746    1.3576 H   0  0  0  0  0  0
   -5.3027   -1.5714    1.4486 H   0  0  0  0  0  0
   -5.9804    0.0319    1.6542 H   0  0  0  0  0  0
   -2.3420    3.6862   -0.4801 H   0  0  0  0  0  0
   -3.7063    3.6849    0.5611 H   0  0  0  0  0  0
   -0.5206   -1.0713   -1.3558 H   0  0  0  0  0  0
   -1.2736   -2.3045   -0.3187 H   0  0  0  0  0  0
    0.7547   -3.0205   -1.3511 H   0  0  0  0  0  0
    3.0022   -3.7566   -1.9606 H   0  0  0  0  0  0
    4.9757   -2.9138   -0.7590 H   0  0  0  0  0  0
    5.9670   -1.5142    1.0089 H   0  0  0  0  0  0
    5.7157    0.0772    2.8703 H   0  0  0  0  0  0
    3.4592    0.8618    3.5444 H   0  0  0  0  0  0
    1.4645    0.0607    2.3582 H   0  0  0  0  0  0
  1  2  2  0  0  0
  1  6  1  0  0  0
  2  3  1  0  0  0
  2 13  1  0  0  0
  3  4  2  0  0  0
  4  5  1  0  0  0
  4 16  1  0  0  0
  5  6  2  0  0  0
  5  7  1  0  0  0
  6 14  1  0  0  0
  7  8  2  0  0  0
  7 12  1  0  0  0
  8  9  1  0  0  0
  8 29  1  0  0  0
  9 10  2  0  0  0
  9 17  1  0  0  0
 10 11  1  0  0  0
 10 15  1  0  0  0
 11 12  2  0  0  0
 11 30  1  0  0  0
 12 31  1  0  0  0
 13 32  1  0  0  0
 13 33  1  0  0  0
 14 34  1  0  0  0
 14 35  1  0  0  0
 16 28  1  0  0  0
 16 36  1  0  0  0
 16 37  1  0  0  0
 18 19  2  0  0  0
 18 23  1  0  0  0
 18 28  1  0  0  0
 19 20  1  0  0  0
 19 38  1  0  0  0
 20 21  2  0  0  0
 20 39  1  0  0  0
 21 22  1  0  0  0
 21 40  1  0  0  0
 22 23  2  0  0  0
 22 24  1  0  0  0
 23 27  1  0  0  0
 24 25  2  0  0  0
 24 41  1  0  0  0
 25 26  1  0  0  0
 25 42  1  0  0  0
 26 27  2  0  0  0
 26 43  1  0  0  0
 27 44  1  0  0  0
M  END
>  <Name>
1-125359

>  <Family>
A

>  <PC_uM>
3.9

>  <TG_uM>
0.054

>  <RL_uM>
0.113

>  <set>
0

$$$$
1-125850
  Cerius2 12180216023D 1   1.00000
 Structure written by MMmdl.
 44 47  0  0  0  0  0  0  0  0999 V2000
   -4.3312    1.7534   -0.1287 N   0  0  0  0  0  0
   -4.2220    0.4273   -0.0762 C   0  0  0  0  0  0
   -3.0704   -0.2264    0.0481 N   0  0  0  0  0  0
   -1.9371    0.5103    0.1331 C   0  0  0  0  0  0
   -1.9367    1.9045    0.0835 C   0  0  0  0  0  0
   -3.1994    2.4766   -0.0668 C   0  0  0  0  0  0
   -0.7140    2.7192    0.1699 C   0  0  0  0  0  0
    0.0972    2.9205   -0.9598 C   0  0  0  0  0  0
    1.2686    3.6824   -0.8752 C   0  0  0  0  0  0
    1.6419    4.2564    0.3442 C   0  0  0  0  0  0
    0.8412    4.0668    1.4723 C   0  0  0  0  0  0
   -0.3274    3.3048    1.3852 C   0  0  0  0  0  0
   -5.3636   -0.3090   -0.1513 N   0  0  0  0  0  0
   -3.3858    3.8477   -0.0925 N   0  0  0  0  0  0
    3.0746    5.2076    0.5208 Cl  0  0  0  0  0  0
   -0.6932   -0.2763    0.3002 C   0  0  0  0  0  0
    2.2112    3.8731   -2.3129 Cl  0  0  0  0  0  0
    1.8720   -1.9154   -0.0131 C   0  0  0  0  0  0
    0.6142   -2.3959    0.3809 C   0  0  0  0  0  0
    0.5249   -3.6903    0.9041 C   0  0  0  0  0  0
    1.6685   -4.4808    1.0559 C   0  0  0  0  0  0
    2.9287   -3.9977    0.6765 C   0  0  0  0  0  0
    3.0328   -2.6975    0.1334 C   0  0  0  0  0  0
    4.0866   -4.7797    0.8198 C   0  0  0  0  0  0
    5.3330   -4.2850    0.4321 C   0  0  0  0  0  0
    5.4372   -3.0044   -0.1028 C   0  0  0  0  0  0
    4.2949   -2.2156   -0.2523 C   0  0  0  0  0  0
   -0.6229   -1.6165    0.2110 C   0  0  0  0  0  0
   -0.1861    2.4768   -1.9132 H   0  0  0  0  0  0
    1.1174    4.5083    2.4275 H   0  0  0  0  0  0
   -0.9375    3.1704    2.2784 H   0  0  0  0  0  0
   -5.3119   -1.3158   -0.1074 H   0  0  0  0  0  0
   -6.2547    0.1563   -0.2386 H   0  0  0  0  0  0
   -2.6806    4.4275   -0.5347 H   0  0  0  0  0  0
   -4.3442    4.1595   -0.2116 H   0  0  0  0  0  0
    0.2045    0.2936    0.5197 H   0  0  0  0  0  0
    1.9594   -0.9224   -0.4522 H   0  0  0  0  0  0
   -0.4381   -4.1000    1.2075 H   0  0  0  0  0  0
    1.5631   -5.4818    1.4727 H   0  0  0  0  0  0
    4.0259   -5.7855    1.2346 H   0  0  0  0  0  0
    6.2226   -4.9017    0.5477 H   0  0  0  0  0  0
    6.4089   -2.6173   -0.4051 H   0  0  0  0  0  0
    4.3988   -1.2161   -0.6737 H   0  0  0  0  0  0
   -1.5196   -2.2034    0.0161 H   0  0  0  0  0  0
  1  2  2  0  0  0
  1  6  1  0  0  0
  2  3  1  0  0  0
  2 13  1  0  0  0
  3  4  2  0  0  0
  4  5  1  0  0  0
  4 16  1  0  0  0
  5  6  2  0  0  0
  5  7  1  0  0  0
  6 14  1  0  0  0
  7  8  2  0  0  0
  7 12  1  0  0  0
  8  9  1  0  0  0
  8 29  1  0  0  0
  9 10  2  0  0  0
  9 17  1  0  0  0
 10 11  1  0  0  0
 10 15  1  0  0  0
 11 12  2  0  0  0
 11 30  1  0  0  0
 12 31  1  0  0  0
 13 32  1  0  0  0
 13 33  1  0  0  0
 14 34  1  0  0  0
 14 35  1  0  0  0
 16 28  2  0  0  0
 16 36  1  0  0  0
 18 19  2  0  0  0
 18 23  1  0  0  0
 18 37  1  0  0  0
 19 20  1  0  0  0
 19 28  1  0  0  0
 20 21  2  0  0  0
 20 38  1  0  0  0
 21 22  1  0  0  0
 21 39  1  0  0  0
 22 23  2  0  0  0
 22 24  1  0  0  0
 23 27  1  0  0  0
 24 25  2  0  0  0
 24 40  1  0  0  0
 25 26  1  0  0  0
 25 41  1  0  0  0
 26 27  2  0  0  0
 26 42  1  0  0  0
 27 43  1  0  0  0
 28 44  1  0  0  0
M  END
>  <Name>
1-125850

>  <Family>
A

>  <PC_uM>
12.8

>  <TG_uM>
0.86

>  <RL_uM>
2.06

>  <set>
2

$$$$
1-211797
  Cerius2 12180216023D 1   1.00000
 Structure written by MMmdl.
 28 29  0  0  0  0  0  0  0  0999 V2000
   -2.7833   -0.3549    0.9982 N   0  0  0  0  0  0
   -2.7624   -1.6436    0.6633 C   0  0  0  0  0  0
   -1.6580   -2.3182    0.3452 N   0  0  0  0  0  0
   -0.4768   -1.6447    0.3620 C   0  0  0  0  0  0
   -0.3924   -0.2936    0.7001 C   0  0  0  0  0  0
   -1.6102    0.3028    1.0304 C   0  0  0  0  0  0
    0.8766    0.4483    0.7186 C   0  0  0  0  0  0
    1.6965    0.4385    1.8596 C   0  0  0  0  0  0
    2.9055    1.1405    1.8778 C   0  0  0  0  0  0
    3.3047    1.8619    0.7555 C   0  0  0  0  0  0
    2.5044    1.8881   -0.3838 C   0  0  0  0  0  0
    1.2954    1.1859   -0.4008 C   0  0  0  0  0  0
   -3.9428   -2.3180    0.6400 N   0  0  0  0  0  0
   -1.7055    1.6461    1.3463 N   0  0  0  0  0  0
    4.7928    2.7263    0.7773 Cl  0  0  0  0  0  0
    0.7374   -2.4563   -0.0343 C   0  0  0  0  0  0
    1.1010   -2.2638   -1.4469 C   0  0  0  0  0  0
    1.3971   -2.1221   -2.5645 N   0  0  0  0  0  0
    1.3981   -0.1180    2.7477 H   0  0  0  0  0  0
    3.5250    1.1181    2.7714 H   0  0  0  0  0  0
    2.8092    2.4518   -1.2624 H   0  0  0  0  0  0
    0.6787    1.2211   -1.2986 H   0  0  0  0  0  0
   -3.9556   -3.2954    0.3893 H   0  0  0  0  0  0
   -4.7984   -1.8371    0.8748 H   0  0  0  0  0  0
   -0.9414    2.0828    1.8514 H   0  0  0  0  0  0
   -2.6343    1.9800    1.5821 H   0  0  0  0  0  0
    0.5181   -3.5185    0.1336 H   0  0  0  0  0  0
    1.5851   -2.2271    0.6199 H   0  0  0  0  0  0
  1  2  2  0  0  0
  1  6  1  0  0  0
  2  3  1  0  0  0
  2 13  1  0  0  0
  3  4  2  0  0  0
  4  5  1  0  0  0
  4 16  1  0  0  0
  5  6  2  0  0  0
  5  7  1  0  0  0
  6 14  1  0  0  0
  7  8  2  0  0  0
  7 12  1  0  0  0
  8  9  1  0  0  0
  8 19  1  0  0  0
  9 10  2  0  0  0
  9 20  1  0  0  0
 10 11  1  0  0  0
 10 15  1  0  0  0
 11 12  2  0  0  0
 11 21  1  0  0  0
 12 22  1  0  0  0
 13 23  1  0  0  0
 13 24  1  0  0  0
 14 25  1  0  0  0
 14 26  1  0  0  0
 16 17  1  0  0  0
 16 27  1  0  0  0
 16 28  1  0  0  0
 17 18  3  0  0  0
M  END
>  <Name>
1-211797

>  <Family>
A

>  <PC_uM>
490

>  <TG_uM>
>100

>  <RL_uM>
188

>  <set>
1

$$$$