Mpro-x0107
     RDKit          3D

 11 11  0  0  0  0  0  0  0  0999 V2000
   10.1040   -0.6810   22.5530 C   0  0  0  0  0  0  0  0  0  0  0  0
    9.2070   -0.0590   21.4840 C   0  0  0  0  0  0  0  0  0  0  0  0
    9.5320    0.9550   20.9690 O   0  0  0  0  0  0  0  0  0  0  0  0
    7.9590   -0.7020   21.1090 N   0  0  0  0  0  0  0  0  0  0  0  0
    7.1050   -0.1160   20.0880 C   0  0  0  0  0  0  0  0  0  0  0  0
    7.4770   -0.1810   18.7520 C   0  0  0  0  0  0  0  0  0  0  0  0
    6.7240    0.3380   17.8000 N   0  0  0  0  0  0  0  0  0  0  0  0
    5.5930    0.9420   18.0910 C   0  0  0  0  0  0  0  0  0  0  0  0
    5.1410    1.0620   19.3980 C   0  0  0  0  0  0  0  0  0  0  0  0
    5.9120    0.5170   20.4250 C   0  0  0  0  0  0  0  0  0  0  0  0
    5.4700    0.6210   21.8830 C   0  0  0  0  0  0  0  0  0  0  0  0
  2  1  1  0
  3  2  2  0
  4  2  1  0
  5  4  1  0
  6  5  2  0
  7  6  1  0
  8  7  2  0
  9  8  1  0
 10  9  2  0
 10  5  1  0
 11 10  1  0
M  END
$$$$
Mpro-x1382
     RDKit          3D

 13 13  0  0  0  0  0  0  0  0999 V2000
   13.8670   -1.8940   21.3090 Cl  0  0  0  0  0  0  0  0  0  0  0  0
    7.7860   -1.2790   23.5320 C   0  0  0  0  0  0  0  0  0  0  0  0
    8.9530   -2.0530   22.9230 C   0  0  1  0  0  0  0  0  0  0  0  0
    8.6000   -2.5190   21.5690 N   0  0  0  0  0  0  0  0  0  0  0  0
    8.2480   -1.7370   20.5390 C   0  0  0  0  0  0  0  0  0  0  0  0
    8.1800   -0.5050   20.6070 O   0  0  0  0  0  0  0  0  0  0  0  0
    7.9090   -2.4060   19.2050 C   0  0  0  0  0  0  0  0  0  0  0  0
   10.2820   -1.3150   22.9450 C   0  0  0  0  0  0  0  0  0  0  0  0
   10.4990   -0.1710   23.7040 C   0  0  0  0  0  0  0  0  0  0  0  0
   11.7390    0.4460   23.7060 C   0  0  0  0  0  0  0  0  0  0  0  0
   12.7860   -0.0730   22.9800 C   0  0  0  0  0  0  0  0  0  0  0  0
   12.5700   -1.2120   22.2460 C   0  0  0  0  0  0  0  0  0  0  0  0
   11.3440   -1.8310   22.2260 C   0  0  0  0  0  0  0  0  0  0  0  0
  3  2  1  6
  4  3  1  0
  5  4  1  0
  6  5  2  0
  7  5  1  0
  8  3  1  0
  9  8  2  0
 10  9  1  0
 11 10  2  0
 12  1  1  0
 12 11  1  0
 13  8  1  0
 13 12  2  0
M  END
$$$$
