obj01
 OpenBabel03172113553D

 54 58  0  0  0  0  0  0  0  0999 V2000
   -9.3700   19.8010  -19.5150 Cl  0  0  0  0  0  0  0  0  0  0  0  0
  -10.2790   19.1650  -20.8870 C   0  0  0  0  0  0  0  0  0  0  0  0
   -9.5990   18.7740  -22.0350 C   0  0  0  0  0  0  0  0  0  0  0  0
   -8.0610   18.8760  -22.1900 C   0  0  0  0  0  0  0  0  0  0  0  0
   -7.5250   20.1910  -22.3380 C   0  0  0  0  0  0  0  0  0  0  0  0
   -8.1110   21.4990  -22.3580 C   0  0  0  0  0  0  0  0  0  0  0  0
   -7.1360   22.3790  -22.5330 N   0  0  0  0  0  0  0  0  0  0  0  0
   -5.9750   21.7110  -22.6170 N   0  0  0  0  0  0  0  0  0  0  0  0
   -6.1590   20.3710  -22.5110 C   0  0  0  0  0  0  0  0  0  0  0  0
   -5.3000   19.2380  -22.5500 C   0  0  0  0  0  0  0  0  0  0  0  0
   -5.8340   17.9550  -22.3970 C   0  0  0  0  0  0  0  0  0  0  0  0
   -7.2100   17.7650  -22.2330 C   0  0  0  0  0  0  0  0  0  0  0  0
   -7.7620   16.3560  -22.0710 C   0  0  0  0  0  0  0  0  0  0  0  0
  -10.3410   18.2980  -23.1030 C   0  0  0  0  0  0  0  0  0  0  0  0
  -11.7480   18.2070  -23.0360 C   0  0  0  0  0  0  0  0  0  0  0  0
  -12.4630   17.7170  -24.1040 N   0  0  0  0  0  0  0  0  0  0  0  0
  -13.8110   17.6360  -24.0860 C   0  0  0  0  0  0  0  0  0  0  0  0
  -14.4700   18.0240  -22.9780 N   0  0  0  0  0  0  0  0  0  0  0  0
  -13.8110   18.4630  -21.9390 C   0  0  0  0  0  0  0  0  0  0  0  0
  -14.6330   18.7530  -20.8030 N   0  0  0  0  0  0  0  0  0  0  0  0
  -14.2130   18.4910  -19.3880 C   0  0  0  0  0  0  0  0  0  0  0  0
  -15.2640   17.6290  -18.7460 C   0  0  0  0  0  0  0  0  0  0  0  0
  -16.4330   18.3990  -18.6200 N   0  0  0  0  0  0  0  0  0  0  0  0
  -17.2980   18.2340  -17.4710 C   0  0  0  0  0  0  0  0  0  0  0  0
  -18.5490   19.1290  -17.3810 C   0  0  0  0  0  0  0  0  0  0  0  0
  -19.7940   18.2600  -17.4110 C   0  0  0  0  0  0  0  0  0  0  0  0
  -17.0050   17.4030  -16.6420 O   0  0  0  0  0  0  0  0  0  0  0  0
  -16.7140   19.3620  -19.6470 C   0  0  0  0  0  0  0  0  0  0  0  0
  -16.0600   19.0660  -20.9670 C   0  0  0  0  0  0  0  0  0  0  0  0
  -12.4100   18.5730  -21.9080 C   0  0  0  0  0  0  0  0  0  0  0  0
  -11.6610   19.0870  -20.8200 C   0  0  0  0  0  0  0  0  0  0  0  0
   -9.7350   17.8810  -24.2430 F   0  0  0  0  0  0  0  0  0  0  0  0
   -9.0160   21.6950  -22.2710 H   0  0  0  0  0  0  0  0  0  0  0  0
   -5.2090   22.0860  -22.7290 H   0  0  0  0  0  0  0  0  0  0  0  0
   -4.3830   19.3520  -22.6510 H   0  0  0  0  0  0  0  0  0  0  0  0
   -5.2670   17.2180  -22.4150 H   0  0  0  0  0  0  0  0  0  0  0  0
   -7.9850   15.9940  -22.9430 H   0  0  0  0  0  0  0  0  0  0  0  0
   -7.0940   15.7940  -21.6480 H   0  0  0  0  0  0  0  0  0  0  0  0
   -8.5590   16.3830  -21.5190 H   0  0  0  0  0  0  0  0  0  0  0  0
  -14.2730   17.2890  -24.8140 H   0  0  0  0  0  0  0  0  0  0  0  0
  -13.3610   18.0270  -19.3820 H   0  0  0  0  0  0  0  0  0  0  0  0
  -14.1400   19.3300  -18.9080 H   0  0  0  0  0  0  0  0  0  0  0  0
  -15.4400   16.8560  -19.3050 H   0  0  0  0  0  0  0  0  0  0  0  0
  -14.9630   17.3450  -17.8690 H   0  0  0  0  0  0  0  0  0  0  0  0
  -18.5640   19.7410  -18.1330 H   0  0  0  0  0  0  0  0  0  0  0  0
  -18.5260   19.6340  -16.5530 H   0  0  0  0  0  0  0  0  0  0  0  0
  -19.5770   17.3970  -17.7950 H   0  0  0  0  0  0  0  0  0  0  0  0
  -20.1250   18.1380  -16.5070 H   0  0  0  0  0  0  0  0  0  0  0  0
  -20.4770   18.6920  -17.9480 H   0  0  0  0  0  0  0  0  0  0  0  0
  -17.6740   19.3950  -19.7810 H   0  0  0  0  0  0  0  0  0  0  0  0
  -16.4100   20.2320  -19.3420 H   0  0  0  0  0  0  0  0  0  0  0  0
  -16.5050   18.3080  -21.3760 H   0  0  0  0  0  0  0  0  0  0  0  0
  -16.1480   19.8410  -21.5440 H   0  0  0  0  0  0  0  0  0  0  0  0
  -12.0980   19.3360  -20.0380 H   0  0  0  0  0  0  0  0  0  0  0  0
  1  2  1  0  0  0  0
  2  3  2  0  0  0  0
  2 31  1  0  0  0  0
  3  4  1  0  0  0  0
  3 14  1  0  0  0  0
  4  5  2  0  0  0  0
  4 12  1  0  0  0  0
  5  6  1  0  0  0  0
  5  9  1  0  0  0  0
  6  7  2  0  0  0  0
  6 33  1  0  0  0  0
  7  8  1  0  0  0  0
  8  9  1  0  0  0  0
  8 34  1  0  0  0  0
  9 10  2  0  0  0  0
 10 11  1  0  0  0  0
 10 35  1  0  0  0  0
 11 12  2  0  0  0  0
 11 36  1  0  0  0  0
 12 13  1  0  0  0  0
 13 37  1  0  0  0  0
 13 38  1  0  0  0  0
 13 39  1  0  0  0  0
 14 15  2  0  0  0  0
 14 32  1  0  0  0  0
 15 16  1  0  0  0  0
 15 30  1  0  0  0  0
 16 17  2  0  0  0  0
 17 18  1  0  0  0  0
 17 40  1  0  0  0  0
 18 19  2  0  0  0  0
 19 20  1  0  0  0  0
 19 30  1  0  0  0  0
 20 29  1  0  0  0  0
 20 21  1  0  0  0  0
 21 22  1  0  0  0  0
 21 41  1  0  0  0  0
 21 42  1  0  0  0  0
 22 23  1  0  0  0  0
 22 43  1  0  0  0  0
 22 44  1  0  0  0  0
 23 24  1  0  0  0  0
 23 28  1  0  0  0  0
 24 27  2  0  0  0  0
 24 25  1  0  0  0  0
 25 26  1  0  0  0  0
 25 45  1  0  0  0  0
 25 46  1  0  0  0  0
 26 47  1  0  0  0  0
 26 48  1  0  0  0  0
 26 49  1  0  0  0  0
 28 29  1  0  0  0  0
 28 50  1  0  0  0  0
 28 51  1  0  0  0  0
 29 52  1  0  0  0  0
 29 53  1  0  0  0  0
 30 31  2  0  0  0  0
 31 54  1  0  0  0  0
M  END
