ea1addea-57d6-4931-9057-ca9db5b0445d
     RDKit          3D

 16 17  0  0  0  0  0  0  0  0999 V2000
   -4.9957   28.5917    6.6442 C   0  0  0  0  0  0  0  0  0  0  0  0
   -4.1511   29.5081    5.7941 C   0  0  0  0  0  0  0  0  0  0  0  0
   -3.9589   30.6727    6.1261 O   0  0  0  0  0  0  0  0  0  0  0  0
   -3.6877   28.8846    4.6491 N   0  0  0  0  0  0  0  0  0  0  0  0
   -2.8788   29.4404    3.6365 C   0  0  0  0  0  0  0  0  0  0  0  0
   -2.5506   28.6228    2.5578 C   0  0  0  0  0  0  0  0  0  0  0  0
   -1.7506   29.1117    1.5204 C   0  0  0  0  0  0  0  0  0  0  0  0
   -1.2590   30.4075    1.5202 C   0  0  0  0  0  0  0  0  0  0  0  0
   -0.4964   30.7926    0.4831 N   0  0  0  0  0  0  0  0  0  0  0  0
   -0.0053   32.0529    0.4656 C   0  0  0  0  0  0  0  0  0  0  0  0
    0.8423   32.4452   -0.7067 C   0  0  0  0  0  0  0  0  0  0  0  0
   -0.2602   32.9633    1.4751 C   0  0  0  0  0  0  0  0  0  0  0  0
   -1.0511   32.5587    2.5416 C   0  0  0  0  0  0  0  0  0  0  0  0
   -1.2645   33.5150    3.4993 O   0  0  0  0  0  0  0  0  0  0  0  0
   -1.5796   31.2530    2.6011 C   0  0  0  0  0  0  0  0  0  0  0  0
   -2.3904   30.7479    3.6531 C   0  0  0  0  0  0  0  0  0  0  0  0
  1  2  1  0
  2  3  2  0
  2  4  1  0
  4  5  1  0
  5  6  2  0
  6  7  1  0
  7  8  2  0
  8  9  1  0
  9 10  2  0
 10 11  1  0
 10 12  1  0
 12 13  2  0
 13 14  1  0
 13 15  1  0
 15 16  2  0
 16  5  1  0
 15  8  1  0
M  END
>  <Energy>  (1) 
6.0532931198821496

>  <Energy_Delta>  (1) 
0

>  <std_smi>  (1) 
CC(=O)Nc1ccc2nc(C)cc(O)c2c1

>  <enum_smi>  (1) 
CC(=O)Nc1ccc2nc(C)cc(O)c2c1

>  <enum_code>  (1) 
B

>  <o3da_score>  (1) 
98.599452509811101

>  <o3da_score_rel>  (1) 
0.39253874653565157

>  <o3da_align>  (1) 
0.17772597646660679

>  <RMSD>  (1) 
7.0087763347914781e-05

>  <CONVERGED>  (1) 
0

>  <ENERGY>  (1) 
6.0532931198152484

$$$$
ea1addea-57d6-4931-9057-ca9db5b0445d
     RDKit          3D

 16 17  0  0  0  0  0  0  0  0999 V2000
   -5.0789   27.8484    6.3010 C   0  0  0  0  0  0  0  0  0  0  0  0
   -4.2575   27.8653    5.0356 C   0  0  0  0  0  0  0  0  0  0  0  0
   -4.1280   26.8518    4.3594 O   0  0  0  0  0  0  0  0  0  0  0  0
   -3.6896   29.1048    4.7966 N   0  0  0  0  0  0  0  0  0  0  0  0
   -2.8735   29.4771    3.7082 C   0  0  0  0  0  0  0  0  0  0  0  0
   -2.5319   28.6271    2.6638 C   0  0  0  0  0  0  0  0  0  0  0  0
   -1.7331   29.0899    1.6107 C   0  0  0  0  0  0  0  0  0  0  0  0
   -1.2492   30.3879    1.5660 C   0  0  0  0  0  0  0  0  0  0  0  0
   -0.5041   30.7595    0.5104 N   0  0  0  0  0  0  0  0  0  0  0  0
   -0.0407   32.0292    0.4476 C   0  0  0  0  0  0  0  0  0  0  0  0
    0.7729   32.4056   -0.7538 C   0  0  0  0  0  0  0  0  0  0  0  0
   -0.2863   32.9592    1.4416 C   0  0  0  0  0  0  0  0  0  0  0  0
   -1.0358   32.5599    2.5379 C   0  0  0  0  0  0  0  0  0  0  0  0
   -1.2132   33.5062    3.5125 O   0  0  0  0  0  0  0  0  0  0  0  0
   -1.5649   31.2580    2.6266 C   0  0  0  0  0  0  0  0  0  0  0  0
   -2.3893   30.7909    3.6836 C   0  0  0  0  0  0  0  0  0  0  0  0
  1  2  1  0
  2  3  2  0
  2  4  1  0
  4  5  1  0
  5  6  2  0
  6  7  1  0
  7  8  2  0
  8  9  1  0
  9 10  2  0
 10 11  1  0
 10 12  1  0
 12 13  2  0
 13 14  1  0
 13 15  1  0
 15 16  2  0
 16  5  1  0
 15  8  1  0
M  END
>  <Energy>  (2) 
6.5696847533999625

>  <Energy_Delta>  (2) 
0.51639163351781292

>  <std_smi>  (2) 
CC(=O)Nc1ccc2nc(C)cc(O)c2c1

>  <enum_smi>  (2) 
CC(=O)Nc1ccc2nc(C)cc(O)c2c1

>  <enum_code>  (2) 
B

>  <o3da_score>  (2) 
110.07372324925839

>  <o3da_score_rel>  (2) 
0.43821948551364098

>  <o3da_align>  (2) 
0.24302542433510965

>  <RMSD>  (2) 
0.053287286545349768

>  <CONVERGED>  (2) 
0

>  <ENERGY>  (2) 
8.7571427502865262

$$$$
e8481165-1844-4db8-8738-1ee6593cf308
     RDKit          3D

 16 17  0  0  0  0  0  0  0  0999 V2000
   -2.9567   32.2355    7.8445 C   0  0  0  0  0  0  0  0  0  0  0  0
   -3.6951   32.2664    6.7352 C   0  0  0  0  0  0  0  0  0  0  0  0
   -4.7868   33.0854    6.6675 O   0  0  0  0  0  0  0  0  0  0  0  0
   -3.4665   31.4545    5.6707 N   0  0  0  0  0  0  0  0  0  0  0  0
   -2.6921   31.8816    4.7186 C   0  0  0  0  0  0  0  0  0  0  0  0
   -2.0193   33.2040    4.6163 C   0  0  0  0  0  0  0  0  0  0  0  0
   -1.2317   33.5115    3.5827 C   0  0  0  0  0  0  0  0  0  0  0  0
   -0.9710   32.5684    2.4715 C   0  0  0  0  0  0  0  0  0  0  0  0
   -0.1537   32.9471    1.5381 N   0  0  0  0  0  0  0  0  0  0  0  0
    0.1002   32.0808    0.5053 C   0  0  0  0  0  0  0  0  0  0  0  0
    0.5116   32.5693   -0.6725 C   0  0  0  0  0  0  0  0  0  0  0  0
   -0.0660   30.5981    0.7361 C   0  0  0  0  0  0  0  0  0  0  0  0
   -1.4092   30.3129    1.4059 C   0  0  2  0  0  0  0  0  0  0  0  0
   -2.4576   30.3870    0.4366 O   0  0  0  0  0  0  0  0  0  0  0  0
   -1.6770   31.2585    2.5376 C   0  0  0  0  0  0  0  0  0  0  0  0
   -2.4491   30.9501    3.5883 C   0  0  0  0  0  0  0  0  0  0  0  0
  1  2  2  3
  2  3  1  0
  2  4  1  0
  4  5  2  3
  5  6  1  0
  6  7  2  0
  7  8  1  0
  8  9  2  0
  9 10  1  0
 10 11  2  3
 10 12  1  0
 12 13  1  0
 13 14  1  6
 13 15  1  0
 15 16  2  0
 16  5  1  0
 15  8  1  0
M  END
>  <Energy>  (3) 
-42.11409495761594

>  <Energy_Delta>  (3) 
0

>  <std_smi>  (3) 
CC(=O)Nc1ccc2nc(C)cc(O)c2c1

>  <enum_smi>  (3) 
C=C(O)N=C1C=CC2=NC(=C)CC(O)C2=C1

>  <enum_code>  (3) 
T

>  <parent_uuid>  (3) 
ea1addea-57d6-4931-9057-ca9db5b0445d

>  <o3da_score>  (3) 
73.891220882855563

>  <o3da_score_rel>  (3) 
0.29417168642451574

>  <o3da_align>  (3) 
0.26965351253034814

>  <RMSD>  (3) 
0.027373390160601148

>  <CONVERGED>  (3) 
0

>  <ENERGY>  (3) 
-39.379052040420319

$$$$
e8481165-1844-4db8-8738-1ee6593cf308
     RDKit          3D

 16 17  0  0  0  0  0  0  0  0999 V2000
   -0.9257   33.3590    0.4513 C   0  0  0  0  0  0  0  0  0  0  0  0
   -0.3565   32.7008    1.4610 C   0  0  0  0  0  0  0  0  0  0  0  0
    0.9911   32.4750    1.4529 O   0  0  0  0  0  0  0  0  0  0  0  0
   -1.0403   32.2996    2.5633 N   0  0  0  0  0  0  0  0  0  0  0  0
   -1.5592   31.1081    2.5746 C   0  0  0  0  0  0  0  0  0  0  0  0
   -1.4811   30.0727    1.5082 C   0  0  0  0  0  0  0  0  0  0  0  0
   -2.0860   28.8885    1.6326 C   0  0  0  0  0  0  0  0  0  0  0  0
   -2.8741   28.5222    2.8306 C   0  0  0  0  0  0  0  0  0  0  0  0
   -3.4636   27.3658    2.8414 N   0  0  0  0  0  0  0  0  0  0  0  0
   -4.2216   27.0206    3.9308 C   0  0  0  0  0  0  0  0  0  0  0  0
   -4.4606   25.7258    4.1777 C   0  0  0  0  0  0  0  0  0  0  0  0
   -4.7788   28.1123    4.8126 C   0  0  0  0  0  0  0  0  0  0  0  0
   -3.6840   29.1252    5.1452 C   0  0  1  0  0  0  0  0  0  0  0  0
   -2.7790   28.5921    6.1150 O   0  0  0  0  0  0  0  0  0  0  0  0
   -2.9124   29.5261    3.9278 C   0  0  0  0  0  0  0  0  0  0  0  0
   -2.3146   30.7168    3.7908 C   0  0  0  0  0  0  0  0  0  0  0  0
  1  2  2  3
  2  3  1  0
  2  4  1  0
  4  5  2  3
  5  6  1  0
  6  7  2  0
  7  8  1  0
  8  9  2  0
  9 10  1  0
 10 11  2  3
 10 12  1  0
 12 13  1  0
 13 14  1  1
 13 15  1  0
 15 16  2  0
 16  5  1  0
 15  8  1  0
M  END
>  <Energy>  (4) 
-42.114094957611876

>  <Energy_Delta>  (4) 
4.0643044485477731e-12

>  <std_smi>  (4) 
CC(=O)Nc1ccc2nc(C)cc(O)c2c1

>  <enum_smi>  (4) 
C=C(O)N=C1C=CC2=NC(=C)CC(O)C2=C1

>  <enum_code>  (4) 
T

>  <parent_uuid>  (4) 
ea1addea-57d6-4931-9057-ca9db5b0445d

>  <o3da_score>  (4) 
73.955179265603078

>  <o3da_score_rel>  (4) 
0.294426314039123

>  <o3da_align>  (4) 
0.45788624651062176

>  <RMSD>  (4) 
6.789112947762379e-05

>  <CONVERGED>  (4) 
0

>  <ENERGY>  (4) 
-42.114094957674247

$$$$
e8481165-1844-4db8-8738-1ee6593cf308
     RDKit          3D

 16 17  0  0  0  0  0  0  0  0999 V2000
   -1.9331   34.2215    3.3974 C   0  0  0  0  0  0  0  0  0  0  0  0
   -1.0088   33.2611    3.3865 C   0  0  0  0  0  0  0  0  0  0  0  0
   -0.0327   33.2455    4.3424 O   0  0  0  0  0  0  0  0  0  0  0  0
   -0.9329   32.3189    2.4117 N   0  0  0  0  0  0  0  0  0  0  0  0
   -1.5476   31.1878    2.5890 C   0  0  0  0  0  0  0  0  0  0  0  0
   -1.4606   30.1983    1.4878 C   0  0  0  0  0  0  0  0  0  0  0  0
   -2.0754   29.0150    1.5414 C   0  0  0  0  0  0  0  0  0  0  0  0
   -2.8898   28.6056    2.7066 C   0  0  0  0  0  0  0  0  0  0  0  0
   -3.4895   27.4556    2.6554 N   0  0  0  0  0  0  0  0  0  0  0  0
   -4.2719   27.0695    3.7132 C   0  0  0  0  0  0  0  0  0  0  0  0
   -4.5289   25.7675    3.8957 C   0  0  0  0  0  0  0  0  0  0  0  0
   -4.8342   28.1255    4.6338 C   0  0  0  0  0  0  0  0  0  0  0  0
   -3.7358   29.1107    5.0308 C   0  0  1  0  0  0  0  0  0  0  0  0
   -2.8511   28.5245    5.9883 O   0  0  0  0  0  0  0  0  0  0  0  0
   -2.9404   29.5623    3.8460 C   0  0  0  0  0  0  0  0  0  0  0  0
   -2.3320   30.7549    3.7791 C   0  0  0  0  0  0  0  0  0  0  0  0
  1  2  2  3
  2  3  1  0
  2  4  1  0
  4  5  2  3
  5  6  1  0
  6  7  2  0
  7  8  1  0
  8  9  2  0
  9 10  1  0
 10 11  2  3
 10 12  1  0
 12 13  1  0
 13 14  1  1
 13 15  1  0
 15 16  2  0
 16  5  1  0
 15  8  1  0
M  END
>  <Energy>  (5) 
-42.024796818549831

>  <Energy_Delta>  (5) 
0.089298139066109172

>  <std_smi>  (5) 
CC(=O)Nc1ccc2nc(C)cc(O)c2c1

>  <enum_smi>  (5) 
C=C(O)N=C1C=CC2=NC(=C)CC(O)C2=C1

>  <enum_code>  (5) 
T

>  <parent_uuid>  (5) 
ea1addea-57d6-4931-9057-ca9db5b0445d

>  <o3da_score>  (5) 
70.502777342770443

>  <o3da_score_rel>  (5) 
0.28068180036455526

>  <o3da_align>  (5) 
0.36840161617735634

>  <RMSD>  (5) 
6.4161624673455999e-05

>  <CONVERGED>  (5) 
0

>  <ENERGY>  (5) 
-42.024796818640482

$$$$
e8481165-1844-4db8-8738-1ee6593cf308
     RDKit          3D

 16 17  0  0  0  0  0  0  0  0999 V2000
   -1.8431   21.6423    6.2762 C   0  0  0  0  0  0  0  0  0  0  0  0
   -2.0769   22.0714    5.0360 C   0  0  0  0  0  0  0  0  0  0  0  0
   -1.1068   21.9551    4.0809 O   0  0  0  0  0  0  0  0  0  0  0  0
   -3.2790   22.5572    4.6329 N   0  0  0  0  0  0  0  0  0  0  0  0
   -3.4992   23.8344    4.7294 C   0  0  0  0  0  0  0  0  0  0  0  0
   -4.8324   24.3186    4.2965 C   0  0  0  0  0  0  0  0  0  0  0  0
   -5.1659   25.6105    4.3232 C   0  0  0  0  0  0  0  0  0  0  0  0
   -4.2247   26.6550    4.7834 C   0  0  0  0  0  0  0  0  0  0  0  0
   -4.6183   27.8911    4.7373 N   0  0  0  0  0  0  0  0  0  0  0  0
   -3.7505   28.8763    5.1323 C   0  0  0  0  0  0  0  0  0  0  0  0
   -4.2392   30.0611    5.5223 C   0  0  0  0  0  0  0  0  0  0  0  0
   -2.2665   28.6017    5.1006 C   0  0  0  0  0  0  0  0  0  0  0  0
   -1.9713   27.2524    5.7539 C   0  0  1  0  0  0  0  0  0  0  0  0
   -2.0772   27.3449    7.1764 O   0  0  0  0  0  0  0  0  0  0  0  0
   -2.8976   26.1829    5.2650 C   0  0  0  0  0  0  0  0  0  0  0  0
   -2.5653   24.8849    5.2229 C   0  0  0  0  0  0  0  0  0  0  0  0
  1  2  2  3
  2  3  1  0
  2  4  1  0
  4  5  2  3
  5  6  1  0
  6  7  2  0
  7  8  1  0
  8  9  2  0
  9 10  1  0
 10 11  2  3
 10 12  1  0
 12 13  1  0
 13 14  1  1
 13 15  1  0
 15 16  2  0
 16  5  1  0
 15  8  1  0
M  END
>  <Energy>  (6) 
-42.020448962458119

>  <Energy_Delta>  (6) 
0.09364599515782146

>  <std_smi>  (6) 
CC(=O)Nc1ccc2nc(C)cc(O)c2c1

>  <enum_smi>  (6) 
C=C(O)N=C1C=CC2=NC(=C)CC(O)C2=C1

>  <enum_code>  (6) 
T

>  <parent_uuid>  (6) 
ea1addea-57d6-4931-9057-ca9db5b0445d

>  <o3da_score>  (6) 
70.093766582670611

>  <o3da_score_rel>  (6) 
0.27905346910102002

>  <o3da_align>  (6) 
0.15645583077698239

>  <RMSD>  (6) 
6.1211851774219524e-05

>  <CONVERGED>  (6) 
0

>  <ENERGY>  (6) 
-42.020448962856875

$$$$
e8481165-1844-4db8-8738-1ee6593cf308
     RDKit          3D

 16 17  0  0  0  0  0  0  0  0999 V2000
   -3.0321   29.5294    4.0622 C   0  0  0  0  0  0  0  0  0  0  0  0
   -3.7375   28.8850    4.9917 C   0  0  0  0  0  0  0  0  0  0  0  0
   -3.6424   29.2621    6.3016 O   0  0  0  0  0  0  0  0  0  0  0  0
   -4.6277   27.9030    4.6970 N   0  0  0  0  0  0  0  0  0  0  0  0
   -4.2171   26.6699    4.6963 C   0  0  0  0  0  0  0  0  0  0  0  0
   -2.8529   26.1664    5.0136 C   0  0  0  0  0  0  0  0  0  0  0  0
   -2.5651   24.8622    5.0041 C   0  0  0  0  0  0  0  0  0  0  0  0
   -3.5749   23.8291    4.6827 C   0  0  0  0  0  0  0  0  0  0  0  0
   -3.2113   22.5843    4.7389 N   0  0  0  0  0  0  0  0  0  0  0  0
   -4.1407   21.6120    4.4721 C   0  0  0  0  0  0  0  0  0  0  0  0
   -3.7256   20.3992    4.0831 C   0  0  0  0  0  0  0  0  0  0  0  0
   -5.6064   21.9328    4.6405 C   0  0  0  0  0  0  0  0  0  0  0  0
   -5.9305   23.2654    3.9667 C   0  0  2  0  0  0  0  0  0  0  0  0
   -5.9723   23.1159    2.5459 O   0  0  0  0  0  0  0  0  0  0  0  0
   -4.9305   24.3217    4.3178 C   0  0  0  0  0  0  0  0  0  0  0  0
   -5.2158   25.6300    4.3435 C   0  0  0  0  0  0  0  0  0  0  0  0
  1  2  2  3
  2  3  1  0
  2  4  1  0
  4  5  2  3
  5  6  1  0
  6  7  2  0
  7  8  1  0
  8  9  2  0
  9 10  1  0
 10 11  2  3
 10 12  1  0
 12 13  1  0
 13 14  1  6
 13 15  1  0
 15 16  2  0
 16  5  1  0
 15  8  1  0
M  END
>  <Energy>  (7) 
-41.976455929537607

>  <Energy_Delta>  (7) 
0.13763902807833261

>  <std_smi>  (7) 
CC(=O)Nc1ccc2nc(C)cc(O)c2c1

>  <enum_smi>  (7) 
C=C(O)N=C1C=CC2=NC(=C)CC(O)C2=C1

>  <enum_code>  (7) 
T

>  <parent_uuid>  (7) 
ea1addea-57d6-4931-9057-ca9db5b0445d

>  <o3da_score>  (7) 
82.769075934040899

>  <o3da_score_rel>  (7) 
0.32951571729903539

>  <o3da_align>  (7) 
0.24616791093754364

>  <RMSD>  (7) 
6.9715321124103036e-05

>  <CONVERGED>  (7) 
0

>  <ENERGY>  (7) 
-41.976455929781409

$$$$
e8481165-1844-4db8-8738-1ee6593cf308
     RDKit          3D

 16 17  0  0  0  0  0  0  0  0999 V2000
    0.9612   32.5853    1.3668 C   0  0  0  0  0  0  0  0  0  0  0  0
   -0.3655   32.6910    1.4405 C   0  0  0  0  0  0  0  0  0  0  0  0
   -1.0592   33.2841    0.4235 O   0  0  0  0  0  0  0  0  0  0  0  0
   -1.0796   32.3062    2.5291 N   0  0  0  0  0  0  0  0  0  0  0  0
   -1.5697   31.1027    2.5604 C   0  0  0  0  0  0  0  0  0  0  0  0
   -1.4577   30.0511    1.5131 C   0  0  0  0  0  0  0  0  0  0  0  0
   -2.0401   28.8574    1.6506 C   0  0  0  0  0  0  0  0  0  0  0  0
   -2.8455   28.5000    2.8396 C   0  0  0  0  0  0  0  0  0  0  0  0
   -3.4442   27.3469    2.8423 N   0  0  0  0  0  0  0  0  0  0  0  0
   -4.2435   27.0229    3.9090 C   0  0  0  0  0  0  0  0  0  0  0  0
   -4.5331   25.7369    4.1463 C   0  0  0  0  0  0  0  0  0  0  0  0
   -4.7892   28.1321    4.7685 C   0  0  0  0  0  0  0  0  0  0  0  0
   -3.6470   29.0663    5.1549 C   0  0  2  0  0  0  0  0  0  0  0  0
   -4.1594   30.1930    5.8672 O   0  0  0  0  0  0  0  0  0  0  0  0
   -2.9003   29.5134    3.9325 C   0  0  0  0  0  0  0  0  0  0  0  0
   -2.3255   30.7138    3.7769 C   0  0  0  0  0  0  0  0  0  0  0  0
  1  2  2  3
  2  3  1  0
  2  4  1  0
  4  5  2  3
  5  6  1  0
  6  7  2  0
  7  8  1  0
  8  9  2  0
  9 10  1  0
 10 11  2  3
 10 12  1  0
 12 13  1  0
 13 14  1  6
 13 15  1  0
 15 16  2  0
 16  5  1  0
 15  8  1  0
M  END
>  <Energy>  (8) 
-41.825774022179225

>  <Energy_Delta>  (8) 
0.28832093543671533

>  <std_smi>  (8) 
CC(=O)Nc1ccc2nc(C)cc(O)c2c1

>  <enum_smi>  (8) 
C=C(O)N=C1C=CC2=NC(=C)CC(O)C2=C1

>  <enum_code>  (8) 
T

>  <parent_uuid>  (8) 
ea1addea-57d6-4931-9057-ca9db5b0445d

>  <o3da_score>  (8) 
74.165805680266828

>  <o3da_score_rel>  (8) 
0.29526484839904943

>  <o3da_align>  (8) 
0.45358383387048651

>  <RMSD>  (8) 
6.7496463966776205e-05

>  <CONVERGED>  (8) 
0

>  <ENERGY>  (8) 
-41.825774022770091

$$$$
e8481165-1844-4db8-8738-1ee6593cf308
     RDKit          3D

 16 17  0  0  0  0  0  0  0  0999 V2000
   -0.3682   25.4509    7.2965 C   0  0  0  0  0  0  0  0  0  0  0  0
   -0.5140   25.0609    6.0302 C   0  0  0  0  0  0  0  0  0  0  0  0
    0.4083   25.4326    5.0933 O   0  0  0  0  0  0  0  0  0  0  0  0
   -1.5060   24.2292    5.6206 N   0  0  0  0  0  0  0  0  0  0  0  0
   -2.6211   24.7476    5.2004 C   0  0  0  0  0  0  0  0  0  0  0  0
   -3.6839   23.8011    4.7856 C   0  0  0  0  0  0  0  0  0  0  0  0
   -4.8841   24.2130    4.3733 C   0  0  0  0  0  0  0  0  0  0  0  0
   -5.2428   25.6467    4.3055 C   0  0  0  0  0  0  0  0  0  0  0  0
   -6.4560   25.9502    3.9561 N   0  0  0  0  0  0  0  0  0  0  0  0
   -6.8211   27.2716    3.9192 C   0  0  0  0  0  0  0  0  0  0  0  0
   -7.8669   27.6440    3.1700 C   0  0  0  0  0  0  0  0  0  0  0  0
   -6.0436   28.2608    4.7437 C   0  0  0  0  0  0  0  0  0  0  0  0
   -4.5518   28.0608    4.4923 C   0  0  1  0  0  0  0  0  0  0  0  0
   -3.7989   28.8937    5.3766 O   0  0  0  0  0  0  0  0  0  0  0  0
   -4.1640   26.6181    4.6526 C   0  0  0  0  0  0  0  0  0  0  0  0
   -2.9634   26.1919    5.0724 C   0  0  0  0  0  0  0  0  0  0  0  0
  1  2  2  3
  2  3  1  0
  2  4  1  0
  4  5  2  3
  5  6  1  0
  6  7  2  0
  7  8  1  0
  8  9  2  0
  9 10  1  0
 10 11  2  3
 10 12  1  0
 12 13  1  0
 13 14  1  1
 13 15  1  0
 15 16  2  0
 16  5  1  0
 15  8  1  0
M  END
>  <Energy>  (9) 
-41.405648231120921

>  <Energy_Delta>  (9) 
0.70844672649501916

>  <std_smi>  (9) 
CC(=O)Nc1ccc2nc(C)cc(O)c2c1

>  <enum_smi>  (9) 
C=C(O)N=C1C=CC2=NC(=C)CC(O)C2=C1

>  <enum_code>  (9) 
T

>  <parent_uuid>  (9) 
ea1addea-57d6-4931-9057-ca9db5b0445d

>  <o3da_score>  (9) 
76.613676998791135

>  <o3da_score_rel>  (9) 
0.30501017978370892

>  <o3da_align>  (9) 
0.21773277006928288

>  <RMSD>  (9) 
6.6764013760326916e-05

>  <CONVERGED>  (9) 
0

>  <ENERGY>  (9) 
-41.405648231155538

$$$$
e8481165-1844-4db8-8738-1ee6593cf308
     RDKit          3D

 16 17  0  0  0  0  0  0  0  0999 V2000
   -0.1213   30.8849    3.5354 C   0  0  0  0  0  0  0  0  0  0  0  0
   -1.2537   30.7813    2.8399 C   0  0  0  0  0  0  0  0  0  0  0  0
   -1.2287   30.8909    1.4781 O   0  0  0  0  0  0  0  0  0  0  0  0
   -2.4721   30.6492    3.4245 N   0  0  0  0  0  0  0  0  0  0  0  0
   -2.9363   29.4535    3.6332 C   0  0  0  0  0  0  0  0  0  0  0  0
   -2.2978   28.1564    3.2795 C   0  0  0  0  0  0  0  0  0  0  0  0
   -2.8966   26.9880    3.5247 C   0  0  0  0  0  0  0  0  0  0  0  0
   -4.2309   26.8979    4.1587 C   0  0  0  0  0  0  0  0  0  0  0  0
   -4.7499   25.7191    4.3195 N   0  0  0  0  0  0  0  0  0  0  0  0
   -5.9976   25.6175    4.8792 C   0  0  0  0  0  0  0  0  0  0  0  0
   -6.3621   24.4672    5.4610 C   0  0  0  0  0  0  0  0  0  0  0  0
   -6.9314   26.8018    4.8089 C   0  0  0  0  0  0  0  0  0  0  0  0
   -6.1946   28.0737    5.2265 C   0  0  1  0  0  0  0  0  0  0  0  0
   -6.0132   28.1100    6.6438 O   0  0  0  0  0  0  0  0  0  0  0  0
   -4.8595   28.1851    4.5600 C   0  0  0  0  0  0  0  0  0  0  0  0
   -4.2597   29.3537    4.2980 C   0  0  0  0  0  0  0  0  0  0  0  0
  1  2  2  3
  2  3  1  0
  2  4  1  0
  4  5  2  3
  5  6  1  0
  6  7  2  0
  7  8  1  0
  8  9  2  0
  9 10  1  0
 10 11  2  3
 10 12  1  0
 12 13  1  0
 13 14  1  1
 13 15  1  0
 15 16  2  0
 16  5  1  0
 15  8  1  0
M  END
>  <Energy>  (10) 
-37.641808938673179

>  <Energy_Delta>  (10) 
4.4722860189427607

>  <std_smi>  (10) 
CC(=O)Nc1ccc2nc(C)cc(O)c2c1

>  <enum_smi>  (10) 
C=C(O)N=C1C=CC2=NC(=C)CC(O)C2=C1

>  <enum_code>  (10) 
T

>  <parent_uuid>  (10) 
ea1addea-57d6-4931-9057-ca9db5b0445d

>  <o3da_score>  (10) 
63.730878937047606

>  <o3da_score_rel>  (10) 
0.25372188888244318

>  <o3da_align>  (10) 
0.56288555146973696

>  <RMSD>  (10) 
0.19945489073822711

>  <CONVERGED>  (10) 
0

>  <ENERGY>  (10) 
-41.976455929788067

$$$$
e8481165-1844-4db8-8738-1ee6593cf308
     RDKit          3D

 16 17  0  0  0  0  0  0  0  0999 V2000
    0.5251   34.7961   -0.9829 C   0  0  0  0  0  0  0  0  0  0  0  0
    1.2143   33.8334   -0.3704 C   0  0  0  0  0  0  0  0  0  0  0  0
    2.2560   34.1601    0.4513 O   0  0  0  0  0  0  0  0  0  0  0  0
    0.9883   32.5117   -0.5844 N   0  0  0  0  0  0  0  0  0  0  0  0
    0.1676   31.8830    0.2035 C   0  0  0  0  0  0  0  0  0  0  0  0
   -0.0689   30.4485   -0.0883 C   0  0  0  0  0  0  0  0  0  0  0  0
   -0.8599   29.6871    0.6699 C   0  0  0  0  0  0  0  0  0  0  0  0
   -1.5467   30.2184    1.8675 C   0  0  0  0  0  0  0  0  0  0  0  0
   -2.2244   29.3838    2.5969 N   0  0  0  0  0  0  0  0  0  0  0  0
   -2.8185   29.8436    3.7445 C   0  0  0  0  0  0  0  0  0  0  0  0
   -3.8296   29.1505    4.2842 C   0  0  0  0  0  0  0  0  0  0  0  0
   -2.2961   31.1074    4.3737 C   0  0  0  0  0  0  0  0  0  0  0  0
   -2.1839   32.1841    3.2994 C   0  0  1  0  0  0  0  0  0  0  0  0
   -1.5792   33.3562    3.8466 O   0  0  0  0  0  0  0  0  0  0  0  0
   -1.3873   31.6788    2.1311 C   0  0  0  0  0  0  0  0  0  0  0  0
   -0.5781   32.4308    1.3702 C   0  0  0  0  0  0  0  0  0  0  0  0
  1  2  2  3
  2  3  1  0
  2  4  1  0
  4  5  2  3
  5  6  1  0
  6  7  2  0
  7  8  1  0
  8  9  2  0
  9 10  1  0
 10 11  2  3
 10 12  1  0
 12 13  1  0
 13 14  1  1
 13 15  1  0
 15 16  2  0
 16  5  1  0
 15  8  1  0
M  END
>  <Energy>  (11) 
-37.390700225709459

>  <Energy_Delta>  (11) 
4.7233947319064811

>  <std_smi>  (11) 
CC(=O)Nc1ccc2nc(C)cc(O)c2c1

>  <enum_smi>  (11) 
C=C(O)N=C1C=CC2=NC(=C)CC(O)C2=C1

>  <enum_code>  (11) 
T

>  <parent_uuid>  (11) 
ea1addea-57d6-4931-9057-ca9db5b0445d

>  <o3da_score>  (11) 
78.928378685144693

>  <o3da_score_rel>  (11) 
0.31422534351369791

>  <o3da_align>  (11) 
0.60335058782441875

>  <RMSD>  (11) 
0.19945066960905669

>  <CONVERGED>  (11) 
0

>  <ENERGY>  (11) 
-41.784108637153736

$$$$
e8481165-1844-4db8-8738-1ee6593cf308
     RDKit          3D

 16 17  0  0  0  0  0  0  0  0999 V2000
   -0.2071   33.4543    4.1955 C   0  0  0  0  0  0  0  0  0  0  0  0
   -1.1687   33.2617    3.2927 C   0  0  0  0  0  0  0  0  0  0  0  0
   -2.2355   34.1141    3.2427 O   0  0  0  0  0  0  0  0  0  0  0  0
   -1.1084   32.2926    2.3435 N   0  0  0  0  0  0  0  0  0  0  0  0
   -1.6543   31.1396    2.5925 C   0  0  0  0  0  0  0  0  0  0  0  0
   -1.5368   30.1048    1.5370 C   0  0  0  0  0  0  0  0  0  0  0  0
   -2.0872   28.8955    1.6590 C   0  0  0  0  0  0  0  0  0  0  0  0
   -2.8689   28.5061    2.8530 C   0  0  0  0  0  0  0  0  0  0  0  0
   -3.4439   27.3411    2.8467 N   0  0  0  0  0  0  0  0  0  0  0  0
   -4.2231   26.9852    3.9179 C   0  0  0  0  0  0  0  0  0  0  0  0
   -4.4843   25.6903    4.1391 C   0  0  0  0  0  0  0  0  0  0  0  0
   -4.7792   28.0702    4.8007 C   0  0  0  0  0  0  0  0  0  0  0  0
   -3.6501   29.0201    5.1866 C   0  0  2  0  0  0  0  0  0  0  0  0
   -4.1739   30.1235    5.9262 O   0  0  0  0  0  0  0  0  0  0  0  0
   -2.9294   29.5039    3.9614 C   0  0  0  0  0  0  0  0  0  0  0  0
   -2.3843   30.7214    3.8213 C   0  0  0  0  0  0  0  0  0  0  0  0
  1  2  2  3
  2  3  1  0
  2  4  1  0
  4  5  2  3
  5  6  1  0
  6  7  2  0
  7  8  1  0
  8  9  2  0
  9 10  1  0
 10 11  2  3
 10 12  1  0
 12 13  1  0
 13 14  1  6
 13 15  1  0
 15 16  2  0
 16  5  1  0
 15  8  1  0
M  END
>  <Energy>  (12) 
-37.390700225415671

>  <Energy_Delta>  (12) 
4.7233947322002692

>  <std_smi>  (12) 
CC(=O)Nc1ccc2nc(C)cc(O)c2c1

>  <enum_smi>  (12) 
C=C(O)N=C1C=CC2=NC(=C)CC(O)C2=C1

>  <enum_code>  (12) 
T

>  <parent_uuid>  (12) 
ea1addea-57d6-4931-9057-ca9db5b0445d

>  <o3da_score>  (12) 
74.220593100514805

>  <o3da_score_rel>  (12) 
0.29548296507944299

>  <o3da_align>  (12) 
0.46411278203829287

>  <RMSD>  (12) 
0.19947396701902798

>  <CONVERGED>  (12) 
0

>  <ENERGY>  (12) 
-41.78410863715343

$$$$
e8481165-1844-4db8-8738-1ee6593cf308
     RDKit          3D

 16 17  0  0  0  0  0  0  0  0999 V2000
   -0.8178   33.3765    0.5052 C   0  0  0  0  0  0  0  0  0  0  0  0
   -0.2705   32.6447    1.4756 C   0  0  0  0  0  0  0  0  0  0  0  0
    1.0585   32.3310    1.4254 O   0  0  0  0  0  0  0  0  0  0  0  0
   -0.9542   32.2491    2.5798 N   0  0  0  0  0  0  0  0  0  0  0  0
   -1.5343   31.0859    2.5712 C   0  0  0  0  0  0  0  0  0  0  0  0
   -1.5388   30.0837    1.4708 C   0  0  0  0  0  0  0  0  0  0  0  0
   -2.1468   28.9017    1.5991 C   0  0  0  0  0  0  0  0  0  0  0  0
   -2.8439   28.4990    2.8409 C   0  0  0  0  0  0  0  0  0  0  0  0
   -3.3298   27.2956    2.9005 N   0  0  0  0  0  0  0  0  0  0  0  0
   -3.9266   26.8838    4.0650 C   0  0  0  0  0  0  0  0  0  0  0  0
   -4.7763   25.8487    4.0375 C   0  0  0  0  0  0  0  0  0  0  0  0
   -3.5872   27.5995    5.3453 C   0  0  0  0  0  0  0  0  0  0  0  0
   -3.7158   29.1028    5.1210 C   0  0  1  0  0  0  0  0  0  0  0  0
   -3.2803   29.8076    6.2842 O   0  0  0  0  0  0  0  0  0  0  0  0
   -2.9167   29.5232    3.9225 C   0  0  0  0  0  0  0  0  0  0  0  0
   -2.2893   30.6998    3.7890 C   0  0  0  0  0  0  0  0  0  0  0  0
  1  2  2  3
  2  3  1  0
  2  4  1  0
  4  5  2  3
  5  6  1  0
  6  7  2  0
  7  8  1  0
  8  9  2  0
  9 10  1  0
 10 11  2  3
 10 12  1  0
 12 13  1  0
 13 14  1  1
 13 15  1  0
 15 16  2  0
 16  5  1  0
 15  8  1  0
M  END
>  <Energy>  (13) 
-37.126176555623601

>  <Energy_Delta>  (13) 
4.9879184019923386

>  <std_smi>  (13) 
CC(=O)Nc1ccc2nc(C)cc(O)c2c1

>  <enum_smi>  (13) 
C=C(O)N=C1C=CC2=NC(=C)CC(O)C2=C1

>  <enum_code>  (13) 
T

>  <parent_uuid>  (13) 
ea1addea-57d6-4931-9057-ca9db5b0445d

>  <o3da_score>  (13) 
68.352136830999683

>  <o3da_score_rel>  (13) 
0.27211978800799286

>  <o3da_align>  (13) 
0.41953944281645578

>  <RMSD>  (13) 
0.19020087483161799

>  <CONVERGED>  (13) 
0

>  <ENERGY>  (13) 
-41.825774022834125

$$$$
e8481165-1844-4db8-8738-1ee6593cf308
     RDKit          3D

 16 17  0  0  0  0  0  0  0  0999 V2000
   -6.7881   28.4542    5.5360 C   0  0  0  0  0  0  0  0  0  0  0  0
   -5.8649   28.3139    4.5847 C   0  0  0  0  0  0  0  0  0  0  0  0
   -6.1469   28.6896    3.3017 O   0  0  0  0  0  0  0  0  0  0  0  0
   -4.6020   27.8825    4.8352 N   0  0  0  0  0  0  0  0  0  0  0  0
   -4.3495   26.6106    4.7482 C   0  0  0  0  0  0  0  0  0  0  0  0
   -5.2903   25.5223    4.3685 C   0  0  0  0  0  0  0  0  0  0  0  0
   -4.9132   24.2414    4.3544 C   0  0  0  0  0  0  0  0  0  0  0  0
   -3.5443   23.8123    4.7185 C   0  0  0  0  0  0  0  0  0  0  0  0
   -3.2958   22.5380    4.7435 N   0  0  0  0  0  0  0  0  0  0  0  0
   -2.0435   22.1175    5.1126 C   0  0  0  0  0  0  0  0  0  0  0  0
   -1.6221   20.9020    4.7401 C   0  0  0  0  0  0  0  0  0  0  0  0
   -1.1885   23.0322    5.9471 C   0  0  0  0  0  0  0  0  0  0  0  0
   -1.1747   24.4212    5.3154 C   0  0  2  0  0  0  0  0  0  0  0  0
   -0.4875   25.3342    6.1736 O   0  0  0  0  0  0  0  0  0  0  0  0
   -2.5697   24.8977    5.0297 C   0  0  0  0  0  0  0  0  0  0  0  0
   -2.9613   26.1793    5.0483 C   0  0  0  0  0  0  0  0  0  0  0  0
  1  2  2  3
  2  3  1  0
  2  4  1  0
  4  5  2  3
  5  6  1  0
  6  7  2  0
  7  8  1  0
  8  9  2  0
  9 10  1  0
 10 11  2  3
 10 12  1  0
 12 13  1  0
 13 14  1  1
 13 15  1  0
 15 16  2  0
 16  5  1  0
 15  8  1  0
M  END
>  <Energy>  (14) 
-37.002064678604491

>  <Energy_Delta>  (14) 
5.1120302790114494

>  <std_smi>  (14) 
CC(=O)Nc1ccc2nc(C)cc(O)c2c1

>  <enum_smi>  (14) 
C=C(O)N=C1C=CC2=NC(=C)CC(O)C2=C1

>  <enum_code>  (14) 
T

>  <parent_uuid>  (14) 
ea1addea-57d6-4931-9057-ca9db5b0445d

>  <o3da_score>  (14) 
82.68314200648814

>  <o3da_score_rel>  (14) 
0.3291736018476023

>  <o3da_align>  (14) 
0.2307834835835807

>  <RMSD>  (14) 
0.18945552472313981

>  <CONVERGED>  (14) 
0

>  <ENERGY>  (14) 
-41.530417855079108

$$$$
e8481165-1844-4db8-8738-1ee6593cf308
     RDKit          3D

 16 17  0  0  0  0  0  0  0  0999 V2000
   -0.7751   33.4606    3.5859 C   0  0  0  0  0  0  0  0  0  0  0  0
   -1.1755   32.5658    2.6827 C   0  0  0  0  0  0  0  0  0  0  0  0
   -0.6939   32.6257    1.4054 O   0  0  0  0  0  0  0  0  0  0  0  0
   -2.1171   31.6222    2.9407 N   0  0  0  0  0  0  0  0  0  0  0  0
   -1.7312   30.4594    3.3742 C   0  0  0  0  0  0  0  0  0  0  0  0
   -0.3374   29.9950    3.6091 C   0  0  0  0  0  0  0  0  0  0  0  0
   -0.0750   28.7800    4.0970 C   0  0  0  0  0  0  0  0  0  0  0  0
   -1.1428   27.8155    4.4434 C   0  0  0  0  0  0  0  0  0  0  0  0
   -0.7887   26.6867    4.9788 N   0  0  0  0  0  0  0  0  0  0  0  0
   -1.7646   25.7933    5.3400 C   0  0  0  0  0  0  0  0  0  0  0  0
   -1.4527   24.4976    5.4733 C   0  0  0  0  0  0  0  0  0  0  0  0
   -3.1562   26.3046    5.5972 C   0  0  0  0  0  0  0  0  0  0  0  0
   -3.5845   27.1991    4.4374 C   0  0  1  0  0  0  0  0  0  0  0  0
   -4.8430   27.8067    4.7366 O   0  0  0  0  0  0  0  0  0  0  0  0
   -2.5415   28.2388    4.1443 C   0  0  0  0  0  0  0  0  0  0  0  0
   -2.7936   29.4634    3.6619 C   0  0  0  0  0  0  0  0  0  0  0  0
  1  2  2  3
  2  3  1  0
  2  4  1  0
  4  5  2  3
  5  6  1  0
  6  7  2  0
  7  8  1  0
  8  9  2  0
  9 10  1  0
 10 11  2  3
 10 12  1  0
 12 13  1  0
 13 14  1  1
 13 15  1  0
 15 16  2  0
 16  5  1  0
 15  8  1  0
M  END
>  <Energy>  (15) 
-36.436285875278834

>  <Energy_Delta>  (15) 
5.6778090823371059

>  <std_smi>  (15) 
CC(=O)Nc1ccc2nc(C)cc(O)c2c1

>  <enum_smi>  (15) 
C=C(O)N=C1C=CC2=NC(=C)CC(O)C2=C1

>  <enum_code>  (15) 
T

>  <parent_uuid>  (15) 
ea1addea-57d6-4931-9057-ca9db5b0445d

>  <o3da_score>  (15) 
74.730937835116535

>  <o3da_score_rel>  (15) 
0.29751472161887915

>  <o3da_align>  (15) 
0.58080330740231401

>  <RMSD>  (15) 
0.18164056039949911

>  <CONVERGED>  (15) 
0

>  <ENERGY>  (15) 
-41.530417855105654

$$$$
c79b1b73-1e07-400e-8677-6fcb35bbbd93
     RDKit          3D

 16 17  0  0  0  0  0  0  0  0999 V2000
   -6.1413   28.6492    3.2506 C   0  0  0  0  0  0  0  0  0  0  0  0
   -5.8466   28.3108    4.5059 C   0  0  0  0  0  0  0  0  0  0  0  0
   -6.7744   28.4851    5.4934 O   0  0  0  0  0  0  0  0  0  0  0  0
   -4.6215   27.8662    4.8867 N   0  0  0  0  0  0  0  0  0  0  0  0
   -4.3845   26.5892    4.8567 C   0  0  0  0  0  0  0  0  0  0  0  0
   -5.3318   25.4993    4.4825 C   0  0  0  0  0  0  0  0  0  0  0  0
   -4.9509   24.2198    4.4234 C   0  0  0  0  0  0  0  0  0  0  0  0
   -3.5599   23.8112    4.7036 C   0  0  0  0  0  0  0  0  0  0  0  0
   -3.2106   22.5854    4.5116 N   0  0  0  0  0  0  0  0  0  0  0  0
   -1.7832   22.2529    4.6681 C   0  0  2  0  0  0  0  0  0  0  0  0
   -1.6755   20.7391    4.8238 C   0  0  0  0  0  0  0  0  0  0  0  0
   -1.1388   22.9611    5.8545 C   0  0  0  0  0  0  0  0  0  0  0  0
   -1.3266   24.4475    5.7100 C   0  0  0  0  0  0  0  0  0  0  0  0
   -0.4746   25.2575    6.0640 O   0  0  0  0  0  0  0  0  0  0  0  0
   -2.6537   24.8662    5.1997 C   0  0  0  0  0  0  0  0  0  0  0  0
   -3.0275   26.1480    5.2649 C   0  0  0  0  0  0  0  0  0  0  0  0
  1  2  2  3
  2  3  1  0
  2  4  1  0
  4  5  2  3
  5  6  1  0
  6  7  2  0
  7  8  1  0
  8  9  2  0
  9 10  1  0
 10 11  1  1
 10 12  1  0
 12 13  1  0
 13 14  2  0
 13 15  1  0
 15 16  2  0
 16  5  1  0
 15  8  1  0
M  END
>  <Energy>  (16) 
-50.039754922083283

>  <Energy_Delta>  (16) 
0

>  <std_smi>  (16) 
CC(=O)Nc1ccc2nc(C)cc(O)c2c1

>  <enum_smi>  (16) 
C=C(O)N=C1C=CC2=NC(C)CC(=O)C2=C1

>  <enum_code>  (16) 
T

>  <parent_uuid>  (16) 
ea1addea-57d6-4931-9057-ca9db5b0445d

>  <o3da_score>  (16) 
83.254927411195808

>  <o3da_score_rel>  (16) 
0.33144996262180637

>  <o3da_align>  (16) 
0.21354992506601353

>  <RMSD>  (16) 
6.2472037361889808e-05

>  <CONVERGED>  (16) 
0

>  <ENERGY>  (16) 
-50.039754922115158

$$$$
c79b1b73-1e07-400e-8677-6fcb35bbbd93
     RDKit          3D

 16 17  0  0  0  0  0  0  0  0999 V2000
    1.1732   32.1662    0.7574 C   0  0  0  0  0  0  0  0  0  0  0  0
   -0.0766   31.8939    0.3826 C   0  0  0  0  0  0  0  0  0  0  0  0
   -0.8327   32.8602   -0.2185 O   0  0  0  0  0  0  0  0  0  0  0  0
   -0.6301   30.6590    0.4931 N   0  0  0  0  0  0  0  0  0  0  0  0
   -1.3028   30.3705    1.5664 C   0  0  0  0  0  0  0  0  0  0  0  0
   -1.5676   31.2564    2.7370 C   0  0  0  0  0  0  0  0  0  0  0  0
   -2.3275   30.8645    3.7639 C   0  0  0  0  0  0  0  0  0  0  0  0
   -2.9742   29.5372    3.7888 C   0  0  0  0  0  0  0  0  0  0  0  0
   -3.7904   29.2505    4.7443 N   0  0  0  0  0  0  0  0  0  0  0  0
   -4.5211   27.9735    4.6564 C   0  0  2  0  0  0  0  0  0  0  0  0
   -5.0569   27.6505    6.0478 C   0  0  0  0  0  0  0  0  0  0  0  0
   -3.6552   26.8313    4.1370 C   0  0  0  0  0  0  0  0  0  0  0  0
   -3.0816   27.2111    2.7983 C   0  0  0  0  0  0  0  0  0  0  0  0
   -2.9301   26.3989    1.8904 O   0  0  0  0  0  0  0  0  0  0  0  0
   -2.6267   28.6172    2.6875 C   0  0  0  0  0  0  0  0  0  0  0  0
   -1.8651   29.0000    1.6579 C   0  0  0  0  0  0  0  0  0  0  0  0
  1  2  2  3
  2  3  1  0
  2  4  1  0
  4  5  2  3
  5  6  1  0
  6  7  2  0
  7  8  1  0
  8  9  2  0
  9 10  1  0
 10 11  1  1
 10 12  1  0
 12 13  1  0
 13 14  2  0
 13 15  1  0
 15 16  2  0
 16  5  1  0
 15  8  1  0
M  END
>  <Energy>  (17) 
-50.019193623931926

>  <Energy_Delta>  (17) 
0.020561298151356766

>  <std_smi>  (17) 
CC(=O)Nc1ccc2nc(C)cc(O)c2c1

>  <enum_smi>  (17) 
C=C(O)N=C1C=CC2=NC(C)CC(=O)C2=C1

>  <enum_code>  (17) 
T

>  <parent_uuid>  (17) 
ea1addea-57d6-4931-9057-ca9db5b0445d

>  <o3da_score>  (17) 
76.994888601265814

>  <o3da_score_rel>  (17) 
0.30652783856163535

>  <o3da_align>  (17) 
0.36467303919253286

>  <RMSD>  (17) 
5.8644185798053385e-05

>  <CONVERGED>  (17) 
0

>  <ENERGY>  (17) 
-50.019193623957797

$$$$
c79b1b73-1e07-400e-8677-6fcb35bbbd93
     RDKit          3D

 16 17  0  0  0  0  0  0  0  0999 V2000
   -4.2020   20.9016    4.3774 C   0  0  0  0  0  0  0  0  0  0  0  0
   -3.3699   21.7718    3.8054 C   0  0  0  0  0  0  0  0  0  0  0  0
   -3.0597   21.6468    2.4807 O   0  0  0  0  0  0  0  0  0  0  0  0
   -2.7338   22.7520    4.4969 N   0  0  0  0  0  0  0  0  0  0  0  0
   -3.2884   23.9245    4.5700 C   0  0  0  0  0  0  0  0  0  0  0  0
   -4.5793   24.3574    3.9608 C   0  0  0  0  0  0  0  0  0  0  0  0
   -5.0212   25.6149    4.0569 C   0  0  0  0  0  0  0  0  0  0  0  0
   -4.2427   26.6602    4.7510 C   0  0  0  0  0  0  0  0  0  0  0  0
   -4.6540   27.8812    4.7165 N   0  0  0  0  0  0  0  0  0  0  0  0
   -3.7770   28.9126    5.2992 C   0  0  1  0  0  0  0  0  0  0  0  0
   -4.6255   30.1565    5.5443 C   0  0  0  0  0  0  0  0  0  0  0  0
   -3.1066   28.4579    6.5907 C   0  0  0  0  0  0  0  0  0  0  0  0
   -2.3396   27.1889    6.3328 C   0  0  0  0  0  0  0  0  0  0  0  0
   -1.2652   26.9451    6.8743 O   0  0  0  0  0  0  0  0  0  0  0  0
   -3.0206   26.2135    5.4490 C   0  0  0  0  0  0  0  0  0  0  0  0
   -2.5730   24.9571    5.3605 C   0  0  0  0  0  0  0  0  0  0  0  0
  1  2  2  3
  2  3  1  0
  2  4  1  0
  4  5  2  3
  5  6  1  0
  6  7  2  0
  7  8  1  0
  8  9  2  0
  9 10  1  0
 10 11  1  1
 10 12  1  0
 12 13  1  0
 13 14  2  0
 13 15  1  0
 15 16  2  0
 16  5  1  0
 15  8  1  0
M  END
>  <Energy>  (18) 
-50.019193623658936

>  <Energy_Delta>  (18) 
0.020561298424347285

>  <std_smi>  (18) 
CC(=O)Nc1ccc2nc(C)cc(O)c2c1

>  <enum_smi>  (18) 
C=C(O)N=C1C=CC2=NC(C)CC(=O)C2=C1

>  <enum_code>  (18) 
T

>  <parent_uuid>  (18) 
ea1addea-57d6-4931-9057-ca9db5b0445d

>  <o3da_score>  (18) 
74.222904448729906

>  <o3da_score_rel>  (18) 
0.29549216689251667

>  <o3da_align>  (18) 
0.41982415104257143

>  <RMSD>  (18) 
6.2909984857452457e-05

>  <CONVERGED>  (18) 
0

>  <ENERGY>  (18) 
-50.019193623979362

$$$$
c79b1b73-1e07-400e-8677-6fcb35bbbd93
     RDKit          3D

 16 17  0  0  0  0  0  0  0  0999 V2000
   -4.9102   21.0213    5.1709 C   0  0  0  0  0  0  0  0  0  0  0  0
   -4.0337   21.5966    4.3475 C   0  0  0  0  0  0  0  0  0  0  0  0
   -3.8956   21.1325    3.0701 O   0  0  0  0  0  0  0  0  0  0  0  0
   -3.1900   22.5883    4.7332 N   0  0  0  0  0  0  0  0  0  0  0  0
   -3.5969   23.8196    4.6538 C   0  0  0  0  0  0  0  0  0  0  0  0
   -2.6444   24.8667    5.1065 C   0  0  0  0  0  0  0  0  0  0  0  0
   -2.9660   26.1621    5.1444 C   0  0  0  0  0  0  0  0  0  0  0  0
   -4.3104   26.6305    4.7544 C   0  0  0  0  0  0  0  0  0  0  0  0
   -4.6196   27.8704    4.9226 N   0  0  0  0  0  0  0  0  0  0  0  0
   -6.0124   28.2674    4.6507 C   0  0  1  0  0  0  0  0  0  0  0  0
   -6.0385   29.7845    4.4924 C   0  0  0  0  0  0  0  0  0  0  0  0
   -6.5872   27.5892    3.4124 C   0  0  0  0  0  0  0  0  0  0  0  0
   -6.4812   26.0960    3.5690 C   0  0  0  0  0  0  0  0  0  0  0  0
   -7.3410   25.3265    3.1499 O   0  0  0  0  0  0  0  0  0  0  0  0
   -5.2191   25.6157    4.1821 C   0  0  0  0  0  0  0  0  0  0  0  0
   -4.9022   24.3165    4.1364 C   0  0  0  0  0  0  0  0  0  0  0  0
  1  2  2  3
  2  3  1  0
  2  4  1  0
  4  5  2  3
  5  6  1  0
  6  7  2  0
  7  8  1  0
  8  9  2  0
  9 10  1  0
 10 11  1  6
 10 12  1  0
 12 13  1  0
 13 14  2  0
 13 15  1  0
 15 16  2  0
 16  5  1  0
 15  8  1  0
M  END
>  <Energy>  (19) 
-49.972354773471885

>  <Energy_Delta>  (19) 
0.067400148611397981

>  <std_smi>  (19) 
CC(=O)Nc1ccc2nc(C)cc(O)c2c1

>  <enum_smi>  (19) 
C=C(O)N=C1C=CC2=NC(C)CC(=O)C2=C1

>  <enum_code>  (19) 
T

>  <parent_uuid>  (19) 
ea1addea-57d6-4931-9057-ca9db5b0445d

>  <o3da_score>  (19) 
71.716671788277822

>  <o3da_score_rel>  (19) 
0.28551449052598027

>  <o3da_align>  (19) 
0.10781622433439952

>  <RMSD>  (19) 
7.5158219150495685e-05

>  <CONVERGED>  (19) 
0

>  <ENERGY>  (19) 
-49.972354773642174

$$$$
c79b1b73-1e07-400e-8677-6fcb35bbbd93
     RDKit          3D

 16 17  0  0  0  0  0  0  0  0999 V2000
   -0.3904   25.3144    7.3237 C   0  0  0  0  0  0  0  0  0  0  0  0
   -0.5068   25.0500    6.0223 C   0  0  0  0  0  0  0  0  0  0  0  0
    0.4186   25.5384    5.1441 O   0  0  0  0  0  0  0  0  0  0  0  0
   -1.4670   24.2372    5.5107 N   0  0  0  0  0  0  0  0  0  0  0  0
   -2.6146   24.7537    5.1880 C   0  0  0  0  0  0  0  0  0  0  0  0
   -3.6386   23.8198    4.6515 C   0  0  0  0  0  0  0  0  0  0  0  0
   -4.8796   24.2102    4.3511 C   0  0  0  0  0  0  0  0  0  0  0  0
   -5.3163   25.6049    4.5583 C   0  0  0  0  0  0  0  0  0  0  0  0
   -6.5543   25.9122    4.3732 N   0  0  0  0  0  0  0  0  0  0  0  0
   -6.9757   27.2802    4.7235 C   0  0  2  0  0  0  0  0  0  0  0  0
   -8.3123   27.5426    4.0365 C   0  0  0  0  0  0  0  0  0  0  0  0
   -5.9501   28.3336    4.3211 C   0  0  0  0  0  0  0  0  0  0  0  0
   -4.6257   28.0064    4.9568 C   0  0  0  0  0  0  0  0  0  0  0  0
   -3.8589   28.8733    5.3661 O   0  0  0  0  0  0  0  0  0  0  0  0
   -4.2718   26.5663    4.9681 C   0  0  0  0  0  0  0  0  0  0  0  0
   -3.0248   26.1835    5.2663 C   0  0  0  0  0  0  0  0  0  0  0  0
  1  2  2  3
  2  3  1  0
  2  4  1  0
  4  5  2  3
  5  6  1  0
  6  7  2  0
  7  8  1  0
  8  9  2  0
  9 10  1  0
 10 11  1  6
 10 12  1  0
 12 13  1  0
 13 14  2  0
 13 15  1  0
 15 16  2  0
 16  5  1  0
 15  8  1  0
M  END
>  <Energy>  (20) 
-49.972354771016498

>  <Energy_Delta>  (20) 
0.067400151066784986

>  <std_smi>  (20) 
CC(=O)Nc1ccc2nc(C)cc(O)c2c1

>  <enum_smi>  (20) 
C=C(O)N=C1C=CC2=NC(C)CC(=O)C2=C1

>  <enum_code>  (20) 
T

>  <parent_uuid>  (20) 
ea1addea-57d6-4931-9057-ca9db5b0445d

>  <o3da_score>  (20) 
75.769758476175696

>  <o3da_score_rel>  (20) 
0.30165041752729355

>  <o3da_align>  (20) 
0.24897020424206306

>  <RMSD>  (20) 
5.5957810637715895e-05

>  <CONVERGED>  (20) 
0

>  <ENERGY>  (20) 
-49.972354773612302

$$$$
c79b1b73-1e07-400e-8677-6fcb35bbbd93
     RDKit          3D

 16 17  0  0  0  0  0  0  0  0999 V2000
   -1.1339   21.8215    4.1695 C   0  0  0  0  0  0  0  0  0  0  0  0
   -2.0624   22.1061    5.0827 C   0  0  0  0  0  0  0  0  0  0  0  0
   -1.8194   21.8484    6.4021 O   0  0  0  0  0  0  0  0  0  0  0  0
   -3.2974   22.5722    4.7642 N   0  0  0  0  0  0  0  0  0  0  0  0
   -3.4839   23.8566    4.7061 C   0  0  0  0  0  0  0  0  0  0  0  0
   -4.8454   24.3148    4.3249 C   0  0  0  0  0  0  0  0  0  0  0  0
   -5.1863   25.6053    4.2916 C   0  0  0  0  0  0  0  0  0  0  0  0
   -4.2255   26.6624    4.6626 C   0  0  0  0  0  0  0  0  0  0  0  0
   -4.6294   27.8843    4.7348 N   0  0  0  0  0  0  0  0  0  0  0  0
   -3.6776   28.8876    5.2437 C   0  0  2  0  0  0  0  0  0  0  0  0
   -4.1944   30.2639    4.8361 C   0  0  0  0  0  0  0  0  0  0  0  0
   -2.2605   28.6720    4.7256 C   0  0  0  0  0  0  0  0  0  0  0  0
   -1.8077   27.2811    5.0800 C   0  0  0  0  0  0  0  0  0  0  0  0
   -0.6491   27.0252    5.3950 O   0  0  0  0  0  0  0  0  0  0  0  0
   -2.8391   26.2263    4.9289 C   0  0  0  0  0  0  0  0  0  0  0  0
   -2.4889   24.9352    4.9613 C   0  0  0  0  0  0  0  0  0  0  0  0
  1  2  2  3
  2  3  1  0
  2  4  1  0
  4  5  2  3
  5  6  1  0
  6  7  2  0
  7  8  1  0
  8  9  2  0
  9 10  1  0
 10 11  1  6
 10 12  1  0
 12 13  1  0
 13 14  2  0
 13 15  1  0
 15 16  2  0
 16  5  1  0
 15  8  1  0
M  END
>  <Energy>  (21) 
-49.923313051654503

>  <Energy_Delta>  (21) 
0.11644187042877974

>  <std_smi>  (21) 
CC(=O)Nc1ccc2nc(C)cc(O)c2c1

>  <enum_smi>  (21) 
C=C(O)N=C1C=CC2=NC(C)CC(=O)C2=C1

>  <enum_code>  (21) 
T

>  <parent_uuid>  (21) 
ea1addea-57d6-4931-9057-ca9db5b0445d

>  <o3da_score>  (21) 
70.32627911109374

>  <o3da_score_rel>  (21) 
0.27997913525978463

>  <o3da_align>  (21) 
0.23876227519639637

>  <RMSD>  (21) 
7.022469399497772e-05

>  <CONVERGED>  (21) 
0

>  <ENERGY>  (21) 
-49.923313051736287

$$$$
c79b1b73-1e07-400e-8677-6fcb35bbbd93
     RDKit          3D

 16 17  0  0  0  0  0  0  0  0999 V2000
   -4.0174   21.3168    2.8604 C   0  0  0  0  0  0  0  0  0  0  0  0
   -3.9553   21.6515    4.1492 C   0  0  0  0  0  0  0  0  0  0  0  0
   -4.6789   20.9486    5.0705 O   0  0  0  0  0  0  0  0  0  0  0  0
   -3.1342   22.6225    4.6251 N   0  0  0  0  0  0  0  0  0  0  0  0
   -3.5824   23.8400    4.6935 C   0  0  0  0  0  0  0  0  0  0  0  0
   -4.9477   24.3252    4.3400 C   0  0  0  0  0  0  0  0  0  0  0  0
   -5.2756   25.6192    4.3984 C   0  0  0  0  0  0  0  0  0  0  0  0
   -4.2985   26.6517    4.7995 C   0  0  0  0  0  0  0  0  0  0  0  0
   -4.6334   27.8933    4.7309 N   0  0  0  0  0  0  0  0  0  0  0  0
   -3.6201   28.9196    5.0294 C   0  0  2  0  0  0  0  0  0  0  0  0
   -2.9149   29.3104    3.7307 C   0  0  0  0  0  0  0  0  0  0  0  0
   -2.6437   28.5074    6.1267 C   0  0  0  0  0  0  0  0  0  0  0  0
   -2.0500   27.1534    5.8459 C   0  0  0  0  0  0  0  0  0  0  0  0
   -0.8984   26.8629    6.1578 O   0  0  0  0  0  0  0  0  0  0  0  0
   -2.9820   26.1658    5.2556 C   0  0  0  0  0  0  0  0  0  0  0  0
   -2.6462   24.8729    5.2023 C   0  0  0  0  0  0  0  0  0  0  0  0
  1  2  2  3
  2  3  1  0
  2  4  1  0
  4  5  2  3
  5  6  1  0
  6  7  2  0
  7  8  1  0
  8  9  2  0
  9 10  1  0
 10 11  1  6
 10 12  1  0
 12 13  1  0
 13 14  2  0
 13 15  1  0
 15 16  2  0
 16  5  1  0
 15  8  1  0
M  END
>  <Energy>  (22) 
-49.614014789850565

>  <Energy_Delta>  (22) 
0.42574013223271834

>  <std_smi>  (22) 
CC(=O)Nc1ccc2nc(C)cc(O)c2c1

>  <enum_smi>  (22) 
C=C(O)N=C1C=CC2=NC(C)CC(=O)C2=C1

>  <enum_code>  (22) 
T

>  <parent_uuid>  (22) 
ea1addea-57d6-4931-9057-ca9db5b0445d

>  <o3da_score>  (22) 
77.17500792281929

>  <o3da_score_rel>  (22) 
0.30724491975133483

>  <o3da_align>  (22) 
0.16813870851153226

>  <RMSD>  (22) 
6.0608047432854458e-05

>  <CONVERGED>  (22) 
0

>  <ENERGY>  (22) 
-49.614014790062519

$$$$
c79b1b73-1e07-400e-8677-6fcb35bbbd93
     RDKit          3D

 16 17  0  0  0  0  0  0  0  0999 V2000
   -4.7177   20.9073    5.0472 C   0  0  0  0  0  0  0  0  0  0  0  0
   -3.9779   21.6383    4.2134 C   0  0  0  0  0  0  0  0  0  0  0  0
   -3.9815   21.3578    2.8763 O   0  0  0  0  0  0  0  0  0  0  0  0
   -3.1384   22.6188    4.6344 N   0  0  0  0  0  0  0  0  0  0  0  0
   -3.5828   23.8381    4.6931 C   0  0  0  0  0  0  0  0  0  0  0  0
   -4.9452   24.3256    4.3323 C   0  0  0  0  0  0  0  0  0  0  0  0
   -5.2718   25.6200    4.3901 C   0  0  0  0  0  0  0  0  0  0  0  0
   -4.2953   26.6519    4.7942 C   0  0  0  0  0  0  0  0  0  0  0  0
   -4.6329   27.8931    4.7337 N   0  0  0  0  0  0  0  0  0  0  0  0
   -3.6216   28.9210    5.0339 C   0  0  2  0  0  0  0  0  0  0  0  0
   -2.9294   29.3269    3.7329 C   0  0  0  0  0  0  0  0  0  0  0  0
   -2.6336   28.5030    6.1186 C   0  0  0  0  0  0  0  0  0  0  0  0
   -2.0372   27.1545    5.8183 C   0  0  0  0  0  0  0  0  0  0  0  0
   -0.8777   26.8691    6.1040 O   0  0  0  0  0  0  0  0  0  0  0  0
   -2.9748   26.1662    5.2385 C   0  0  0  0  0  0  0  0  0  0  0  0
   -2.6400   24.8730    5.1855 C   0  0  0  0  0  0  0  0  0  0  0  0
  1  2  2  3
  2  3  1  0
  2  4  1  0
  4  5  2  3
  5  6  1  0
  6  7  2  0
  7  8  1  0
  8  9  2  0
  9 10  1  0
 10 11  1  6
 10 12  1  0
 12 13  1  0
 13 14  2  0
 13 15  1  0
 15 16  2  0
 16  5  1  0
 15  8  1  0
M  END
>  <Energy>  (23) 
-49.608722985227175

>  <Energy_Delta>  (23) 
0.43103193685610819

>  <std_smi>  (23) 
CC(=O)Nc1ccc2nc(C)cc(O)c2c1

>  <enum_smi>  (23) 
C=C(O)N=C1C=CC2=NC(C)CC(=O)C2=C1

>  <enum_code>  (23) 
T

>  <parent_uuid>  (23) 
ea1addea-57d6-4931-9057-ca9db5b0445d

>  <o3da_score>  (23) 
77.238674235525295

>  <o3da_score_rel>  (23) 
0.30749838459267032

>  <o3da_align>  (23) 
0.16212658246436115

>  <RMSD>  (23) 
7.7257185214208807e-05

>  <CONVERGED>  (23) 
0

>  <ENERGY>  (23) 
-49.608722986608328

$$$$
c79b1b73-1e07-400e-8677-6fcb35bbbd93
     RDKit          3D

 16 17  0  0  0  0  0  0  0  0999 V2000
   -1.4120   22.0839    3.0744 C   0  0  0  0  0  0  0  0  0  0  0  0
   -2.1732   22.0971    4.1686 C   0  0  0  0  0  0  0  0  0  0  0  0
   -1.7180   21.5203    5.3203 O   0  0  0  0  0  0  0  0  0  0  0  0
   -3.4388   22.5892    4.1891 N   0  0  0  0  0  0  0  0  0  0  0  0
   -3.6131   23.8526    4.4366 C   0  0  0  0  0  0  0  0  0  0  0  0
   -5.0146   24.3460    4.4271 C   0  0  0  0  0  0  0  0  0  0  0  0
   -5.3238   25.6325    4.6059 C   0  0  0  0  0  0  0  0  0  0  0  0
   -4.2775   26.6544    4.8083 C   0  0  0  0  0  0  0  0  0  0  0  0
   -4.6165   27.8953    4.8664 N   0  0  0  0  0  0  0  0  0  0  0  0
   -3.5605   28.9171    4.9631 C   0  0  2  0  0  0  0  0  0  0  0  0
   -3.1734   29.3631    3.5532 C   0  0  0  0  0  0  0  0  0  0  0  0
   -2.3586   28.4696    5.7887 C   0  0  0  0  0  0  0  0  0  0  0  0
   -1.8472   27.1335    5.3223 C   0  0  0  0  0  0  0  0  0  0  0  0
   -0.6542   26.8436    5.3407 O   0  0  0  0  0  0  0  0  0  0  0  0
   -2.8915   26.1595    4.9280 C   0  0  0  0  0  0  0  0  0  0  0  0
   -2.5739   24.8713    4.7534 C   0  0  0  0  0  0  0  0  0  0  0  0
  1  2  2  3
  2  3  1  0
  2  4  1  0
  4  5  2  3
  5  6  1  0
  6  7  2  0
  7  8  1  0
  8  9  2  0
  9 10  1  0
 10 11  1  6
 10 12  1  0
 12 13  1  0
 13 14  2  0
 13 15  1  0
 15 16  2  0
 16  5  1  0
 15  8  1  0
M  END
>  <Energy>  (24) 
-49.546428320586983

>  <Energy_Delta>  (24) 
0.49332660149629959

>  <std_smi>  (24) 
CC(=O)Nc1ccc2nc(C)cc(O)c2c1

>  <enum_smi>  (24) 
C=C(O)N=C1C=CC2=NC(C)CC(=O)C2=C1

>  <enum_code>  (24) 
T

>  <parent_uuid>  (24) 
ea1addea-57d6-4931-9057-ca9db5b0445d

>  <o3da_score>  (24) 
80.639494114346206

>  <o3da_score_rel>  (24) 
0.32103754265536899

>  <o3da_align>  (24) 
0.38779057435950443

>  <RMSD>  (24) 
7.2820387658176187e-05

>  <CONVERGED>  (24) 
0

>  <ENERGY>  (24) 
-49.546428321239638

$$$$
c79b1b73-1e07-400e-8677-6fcb35bbbd93
     RDKit          3D

 16 17  0  0  0  0  0  0  0  0999 V2000
    0.4082   25.6367    5.1993 C   0  0  0  0  0  0  0  0  0  0  0  0
   -0.4955   25.0581    5.9901 C   0  0  0  0  0  0  0  0  0  0  0  0
   -0.4119   25.2131    7.3448 O   0  0  0  0  0  0  0  0  0  0  0  0
   -1.4710   24.2363    5.5241 N   0  0  0  0  0  0  0  0  0  0  0  0
   -2.6187   24.7513    5.1993 C   0  0  0  0  0  0  0  0  0  0  0  0
   -3.6419   23.8140    4.6681 C   0  0  0  0  0  0  0  0  0  0  0  0
   -4.8774   24.2058    4.3478 C   0  0  0  0  0  0  0  0  0  0  0  0
   -5.3112   25.6057    4.5263 C   0  0  0  0  0  0  0  0  0  0  0  0
   -6.5422   25.9129    4.3056 N   0  0  0  0  0  0  0  0  0  0  0  0
   -6.9946   27.2855    4.5879 C   0  0  1  0  0  0  0  0  0  0  0  0
   -7.5163   27.3483    6.0233 C   0  0  0  0  0  0  0  0  0  0  0  0
   -5.9347   28.3441    4.3014 C   0  0  0  0  0  0  0  0  0  0  0  0
   -4.6311   28.0015    4.9703 C   0  0  0  0  0  0  0  0  0  0  0  0
   -3.8783   28.8602    5.4214 O   0  0  0  0  0  0  0  0  0  0  0  0
   -4.2751   26.5634    4.9613 C   0  0  0  0  0  0  0  0  0  0  0  0
   -3.0343   26.1790    5.2829 C   0  0  0  0  0  0  0  0  0  0  0  0
  1  2  2  3
  2  3  1  0
  2  4  1  0
  4  5  2  3
  5  6  1  0
  6  7  2  0
  7  8  1  0
  8  9  2  0
  9 10  1  0
 10 11  1  1
 10 12  1  0
 12 13  1  0
 13 14  2  0
 13 15  1  0
 15 16  2  0
 16  5  1  0
 15  8  1  0
M  END
>  <Energy>  (25) 
-49.505249416083366

>  <Energy_Delta>  (25) 
0.53450550599991686

>  <std_smi>  (25) 
CC(=O)Nc1ccc2nc(C)cc(O)c2c1

>  <enum_smi>  (25) 
C=C(O)N=C1C=CC2=NC(C)CC(=O)C2=C1

>  <enum_code>  (25) 
T

>  <parent_uuid>  (25) 
ea1addea-57d6-4931-9057-ca9db5b0445d

>  <o3da_score>  (25) 
75.628765433829031

>  <o3da_score_rel>  (25) 
0.30108910374000347

>  <o3da_align>  (25) 
0.25888316253170351

>  <RMSD>  (25) 
5.6463439411952921e-05

>  <CONVERGED>  (25) 
0

>  <ENERGY>  (25) 
-49.505249416342814

$$$$
c79b1b73-1e07-400e-8677-6fcb35bbbd93
     RDKit          3D

 16 17  0  0  0  0  0  0  0  0999 V2000
   -0.1834   31.9816   -0.5277 C   0  0  0  0  0  0  0  0  0  0  0  0
    0.4048   32.1385    0.6582 C   0  0  0  0  0  0  0  0  0  0  0  0
    1.5861   31.5041    0.9202 O   0  0  0  0  0  0  0  0  0  0  0  0
   -0.0690   32.9766    1.6159 N   0  0  0  0  0  0  0  0  0  0  0  0
   -0.8993   32.5092    2.4991 C   0  0  0  0  0  0  0  0  0  0  0  0
   -1.4107   33.4737    3.5075 C   0  0  0  0  0  0  0  0  0  0  0  0
   -2.2173   33.1086    4.5069 C   0  0  0  0  0  0  0  0  0  0  0  0
   -2.6303   31.7028    4.6848 C   0  0  0  0  0  0  0  0  0  0  0  0
   -3.3085   31.3725    5.7300 N   0  0  0  0  0  0  0  0  0  0  0  0
   -3.5796   29.9396    5.9416 C   0  0  1  0  0  0  0  0  0  0  0  0
   -4.7236   29.8285    6.9447 C   0  0  0  0  0  0  0  0  0  0  0  0
   -3.9261   29.2082    4.6500 C   0  0  0  0  0  0  0  0  0  0  0  0
   -2.8115   29.3979    3.6566 C   0  0  0  0  0  0  0  0  0  0  0  0
   -2.4665   28.5152    2.8763 O   0  0  0  0  0  0  0  0  0  0  0  0
   -2.2238   30.7592    3.6231 C   0  0  0  0  0  0  0  0  0  0  0  0
   -1.4181   31.1180    2.6168 C   0  0  0  0  0  0  0  0  0  0  0  0
  1  2  2  3
  2  3  1  0
  2  4  1  0
  4  5  2  3
  5  6  1  0
  6  7  2  0
  7  8  1  0
  8  9  2  0
  9 10  1  0
 10 11  1  1
 10 12  1  0
 12 13  1  0
 13 14  2  0
 13 15  1  0
 15 16  2  0
 16  5  1  0
 15  8  1  0
M  END
>  <Energy>  (26) 
-46.423227972210675

>  <Energy_Delta>  (26) 
3.6165269498726076

>  <std_smi>  (26) 
CC(=O)Nc1ccc2nc(C)cc(O)c2c1

>  <enum_smi>  (26) 
C=C(O)N=C1C=CC2=NC(C)CC(=O)C2=C1

>  <enum_code>  (26) 
T

>  <parent_uuid>  (26) 
ea1addea-57d6-4931-9057-ca9db5b0445d

>  <o3da_score>  (26) 
80.948569859353583

>  <o3da_score_rel>  (26) 
0.32226801810367534

>  <o3da_align>  (26) 
0.33266482077353998

>  <RMSD>  (26) 
0.21894887007033773

>  <CONVERGED>  (26) 
0

>  <ENERGY>  (26) 
-49.923313051781378

$$$$
c79b1b73-1e07-400e-8677-6fcb35bbbd93
     RDKit          3D

 16 17  0  0  0  0  0  0  0  0999 V2000
   -0.3762   25.2957    7.2762 C   0  0  0  0  0  0  0  0  0  0  0  0
   -0.4980   25.0590    5.9700 C   0  0  0  0  0  0  0  0  0  0  0  0
    0.4175   25.5753    5.0974 O   0  0  0  0  0  0  0  0  0  0  0  0
   -1.4537   24.2487    5.4463 N   0  0  0  0  0  0  0  0  0  0  0  0
   -2.6072   24.7618    5.1391 C   0  0  0  0  0  0  0  0  0  0  0  0
   -3.6255   23.8300    4.5892 C   0  0  0  0  0  0  0  0  0  0  0  0
   -4.8676   24.2187    4.2917 C   0  0  0  0  0  0  0  0  0  0  0  0
   -5.3119   25.6096    4.5109 C   0  0  0  0  0  0  0  0  0  0  0  0
   -6.5481   25.9111    4.3128 N   0  0  0  0  0  0  0  0  0  0  0  0
   -7.0079   27.2729    4.6329 C   0  0  1  0  0  0  0  0  0  0  0  0
   -7.5083   27.2991    6.0770 C   0  0  0  0  0  0  0  0  0  0  0  0
   -5.9613   28.3468    4.3541 C   0  0  0  0  0  0  0  0  0  0  0  0
   -4.6450   28.0012    4.9962 C   0  0  0  0  0  0  0  0  0  0  0  0
   -3.8924   28.8567    5.4537 O   0  0  0  0  0  0  0  0  0  0  0  0
   -4.2782   26.5664    4.9535 C   0  0  0  0  0  0  0  0  0  0  0  0
   -3.0303   26.1854    5.2506 C   0  0  0  0  0  0  0  0  0  0  0  0
  1  2  2  3
  2  3  1  0
  2  4  1  0
  4  5  2  3
  5  6  1  0
  6  7  2  0
  7  8  1  0
  8  9  2  0
  9 10  1  0
 10 11  1  1
 10 12  1  0
 12 13  1  0
 13 14  2  0
 13 15  1  0
 15 16  2  0
 16  5  1  0
 15  8  1  0
M  END
>  <Energy>  (27) 
-45.971400133437356

>  <Energy_Delta>  (27) 
4.0683547886459266

>  <std_smi>  (27) 
CC(=O)Nc1ccc2nc(C)cc(O)c2c1

>  <enum_smi>  (27) 
C=C(O)N=C1C=CC2=NC(C)CC(=O)C2=C1

>  <enum_code>  (27) 
T

>  <parent_uuid>  (27) 
ea1addea-57d6-4931-9057-ca9db5b0445d

>  <o3da_score>  (27) 
75.474810656569858

>  <o3da_score_rel>  (27) 
0.30047618740274007

>  <o3da_align>  (27) 
0.26848401834429769

>  <RMSD>  (27) 
0.2167391680527134

>  <CONVERGED>  (27) 
0

>  <ENERGY>  (27) 
-49.546428321344465

$$$$
c79b1b73-1e07-400e-8677-6fcb35bbbd93
     RDKit          3D

 16 17  0  0  0  0  0  0  0  0999 V2000
   -0.5234   30.4924    0.3880 C   0  0  0  0  0  0  0  0  0  0  0  0
   -0.4599   30.8814    1.6615 C   0  0  0  0  0  0  0  0  0  0  0  0
    0.7490   30.9425    2.2950 O   0  0  0  0  0  0  0  0  0  0  0  0
   -1.5420   31.3078    2.3622 N   0  0  0  0  0  0  0  0  0  0  0  0
   -2.2372   30.4352    3.0279 C   0  0  0  0  0  0  0  0  0  0  0  0
   -1.9695   28.9738    3.1624 C   0  0  0  0  0  0  0  0  0  0  0  0
   -2.7992   28.1601    3.8221 C   0  0  0  0  0  0  0  0  0  0  0  0
   -4.0452   28.6574    4.4390 C   0  0  0  0  0  0  0  0  0  0  0  0
   -4.8745   27.8160    4.9546 N   0  0  0  0  0  0  0  0  0  0  0  0
   -6.1666   28.3406    5.4317 C   0  0  1  0  0  0  0  0  0  0  0  0
   -6.7749   27.2955    6.3618 C   0  0  0  0  0  0  0  0  0  0  0  0
   -6.0321   29.6807    6.1460 C   0  0  0  0  0  0  0  0  0  0  0  0
   -5.3615   30.6691    5.2299 C   0  0  0  0  0  0  0  0  0  0  0  0
   -5.6604   31.8597    5.2121 O   0  0  0  0  0  0  0  0  0  0  0  0
   -4.2478   30.1200    4.4208 C   0  0  0  0  0  0  0  0  0  0  0  0
   -3.4212   30.9414    3.7659 C   0  0  0  0  0  0  0  0  0  0  0  0
  1  2  2  3
  2  3  1  0
  2  4  1  0
  4  5  2  3
  5  6  1  0
  6  7  2  0
  7  8  1  0
  8  9  2  0
  9 10  1  0
 10 11  1  1
 10 12  1  0
 12 13  1  0
 13 14  2  0
 13 15  1  0
 15 16  2  0
 16  5  1  0
 15  8  1  0
M  END
>  <Energy>  (28) 
-45.883915892651558

>  <Energy_Delta>  (28) 
4.1558390294317249

>  <std_smi>  (28) 
CC(=O)Nc1ccc2nc(C)cc(O)c2c1

>  <enum_smi>  (28) 
C=C(O)N=C1C=CC2=NC(C)CC(=O)C2=C1

>  <enum_code>  (28) 
T

>  <parent_uuid>  (28) 
ea1addea-57d6-4931-9057-ca9db5b0445d

>  <o3da_score>  (28) 
57.605534283325525

>  <o3da_score_rel>  (28) 
0.22933600182864167

>  <o3da_align>  (28) 
0.68860697469364629

>  <RMSD>  (28) 
0.21660511939978577

>  <CONVERGED>  (28) 
0

>  <ENERGY>  (28) 
-50.039754922109964

$$$$
c79b1b73-1e07-400e-8677-6fcb35bbbd93
     RDKit          3D

 16 17  0  0  0  0  0  0  0  0999 V2000
   -5.2782   21.4259    2.7692 C   0  0  0  0  0  0  0  0  0  0  0  0
   -5.6494   22.0389    3.8932 C   0  0  0  0  0  0  0  0  0  0  0  0
   -5.8632   21.3088    5.0280 O   0  0  0  0  0  0  0  0  0  0  0  0
   -5.9120   23.3694    3.9609 N   0  0  0  0  0  0  0  0  0  0  0  0
   -4.9420   24.1824    4.2540 C   0  0  0  0  0  0  0  0  0  0  0  0
   -3.5292   23.8300    4.5765 C   0  0  0  0  0  0  0  0  0  0  0  0
   -2.6023   24.7642    4.8073 C   0  0  0  0  0  0  0  0  0  0  0  0
   -2.9170   26.2057    4.7385 C   0  0  0  0  0  0  0  0  0  0  0  0
   -1.9634   27.0628    4.8583 N   0  0  0  0  0  0  0  0  0  0  0  0
   -2.2677   28.4930    4.6817 C   0  0  1  0  0  0  0  0  0  0  0  0
   -2.0621   28.8643    3.2132 C   0  0  0  0  0  0  0  0  0  0  0  0
   -3.6469   28.8885    5.1999 C   0  0  0  0  0  0  0  0  0  0  0  0
   -4.7153   27.9834    4.6484 C   0  0  0  0  0  0  0  0  0  0  0  0
   -5.8474   28.3833    4.3912 O   0  0  0  0  0  0  0  0  0  0  0  0
   -4.3346   26.5575    4.5295 C   0  0  0  0  0  0  0  0  0  0  0  0
   -5.2689   25.6293    4.2996 C   0  0  0  0  0  0  0  0  0  0  0  0
  1  2  2  3
  2  3  1  0
  2  4  1  0
  4  5  2  3
  5  6  1  0
  6  7  2  0
  7  8  1  0
  8  9  2  0
  9 10  1  0
 10 11  1  6
 10 12  1  0
 12 13  1  0
 13 14  2  0
 13 15  1  0
 15 16  2  0
 16  5  1  0
 15  8  1  0
M  END
>  <Energy>  (29) 
-45.467034245084655

>  <Energy_Delta>  (29) 
4.5727206769986282

>  <std_smi>  (29) 
CC(=O)Nc1ccc2nc(C)cc(O)c2c1

>  <enum_smi>  (29) 
C=C(O)N=C1C=CC2=NC(C)CC(=O)C2=C1

>  <enum_code>  (29) 
T

>  <parent_uuid>  (29) 
ea1addea-57d6-4931-9057-ca9db5b0445d

>  <o3da_score>  (29) 
70.61898963907089

>  <o3da_score_rel>  (29) 
0.28114445840129504

>  <o3da_align>  (29) 
0.38832754965752458

>  <RMSD>  (29) 
0.2158296356322256

>  <CONVERGED>  (29) 
0

>  <ENERGY>  (29) 
-49.614014790054497

$$$$
c79b1b73-1e07-400e-8677-6fcb35bbbd93
     RDKit          3D

 16 17  0  0  0  0  0  0  0  0999 V2000
   -5.9002   21.2531    4.8348 C   0  0  0  0  0  0  0  0  0  0  0  0
   -5.6205   22.0369    3.7935 C   0  0  0  0  0  0  0  0  0  0  0  0
   -5.1380   21.4883    2.6390 O   0  0  0  0  0  0  0  0  0  0  0  0
   -5.8680   23.3719    3.7842 N   0  0  0  0  0  0  0  0  0  0  0  0
   -4.9243   24.1839    4.1556 C   0  0  0  0  0  0  0  0  0  0  0  0
   -3.5444   23.8302    4.5968 C   0  0  0  0  0  0  0  0  0  0  0  0
   -2.6412   24.7633    4.9114 C   0  0  0  0  0  0  0  0  0  0  0  0
   -2.9475   26.2053    4.8198 C   0  0  0  0  0  0  0  0  0  0  0  0
   -2.0096   27.0609    5.0358 N   0  0  0  0  0  0  0  0  0  0  0  0
   -2.2930   28.4925    4.8376 C   0  0  1  0  0  0  0  0  0  0  0  0
   -1.9362   28.8718    3.4004 C   0  0  0  0  0  0  0  0  0  0  0  0
   -3.7183   28.8874    5.2120 C   0  0  0  0  0  0  0  0  0  0  0  0
   -4.7232   27.9865    4.5465 C   0  0  0  0  0  0  0  0  0  0  0  0
   -5.8170   28.3908    4.1624 O   0  0  0  0  0  0  0  0  0  0  0  0
   -4.3369   26.5592    4.4717 C   0  0  0  0  0  0  0  0  0  0  0  0
   -5.2475   25.6324    4.1570 C   0  0  0  0  0  0  0  0  0  0  0  0
  1  2  2  3
  2  3  1  0
  2  4  1  0
  4  5  2  3
  5  6  1  0
  6  7  2  0
  7  8  1  0
  8  9  2  0
  9 10  1  0
 10 11  1  6
 10 12  1  0
 12 13  1  0
 13 14  2  0
 13 15  1  0
 15 16  2  0
 16  5  1  0
 15  8  1  0
M  END
>  <Energy>  (30) 
-45.460236283366832

>  <Energy_Delta>  (30) 
4.5795186387164506

>  <std_smi>  (30) 
CC(=O)Nc1ccc2nc(C)cc(O)c2c1

>  <enum_smi>  (30) 
C=C(O)N=C1C=CC2=NC(C)CC(=O)C2=C1

>  <enum_code>  (30) 
T

>  <parent_uuid>  (30) 
ea1addea-57d6-4931-9057-ca9db5b0445d

>  <o3da_score>  (30) 
70.880123874841658

>  <o3da_score_rel>  (30) 
0.28218407173562671

>  <o3da_align>  (30) 
0.3766855645988248

>  <RMSD>  (30) 
0.21622731700628131

>  <CONVERGED>  (30) 
0

>  <ENERGY>  (30) 
-49.608722986539362

$$$$
c79b1b73-1e07-400e-8677-6fcb35bbbd93
     RDKit          3D

 16 17  0  0  0  0  0  0  0  0999 V2000
   -1.3112   31.3806    5.6930 C   0  0  0  0  0  0  0  0  0  0  0  0
   -1.8198   30.5332    6.5874 C   0  0  0  0  0  0  0  0  0  0  0  0
   -2.5342   31.0119    7.6491 O   0  0  0  0  0  0  0  0  0  0  0  0
   -1.5970   29.1944    6.5489 N   0  0  0  0  0  0  0  0  0  0  0  0
   -2.4478   28.4381    5.9229 C   0  0  0  0  0  0  0  0  0  0  0  0
   -3.6948   28.8616    5.2230 C   0  0  0  0  0  0  0  0  0  0  0  0
   -4.5200   27.9795    4.6518 C   0  0  0  0  0  0  0  0  0  0  0  0
   -4.2589   26.5264    4.6980 C   0  0  0  0  0  0  0  0  0  0  0  0
   -5.1383   25.7155    4.2212 N   0  0  0  0  0  0  0  0  0  0  0  0
   -4.9227   24.2659    4.3670 C   0  0  2  0  0  0  0  0  0  0  0  0
   -5.5873   23.7958    5.6608 C   0  0  0  0  0  0  0  0  0  0  0  0
   -3.4552   23.8579    4.2794 C   0  0  0  0  0  0  0  0  0  0  0  0
   -2.6073   24.6802    5.2117 C   0  0  0  0  0  0  0  0  0  0  0  0
   -1.6278   24.2185    5.7906 O   0  0  0  0  0  0  0  0  0  0  0  0
   -2.9826   26.1091    5.3092 C   0  0  0  0  0  0  0  0  0  0  0  0
   -2.1503   26.9848    5.8816 C   0  0  0  0  0  0  0  0  0  0  0  0
  1  2  2  3
  2  3  1  0
  2  4  1  0
  4  5  2  3
  5  6  1  0
  6  7  2  0
  7  8  1  0
  8  9  2  0
  9 10  1  0
 10 11  1  1
 10 12  1  0
 12 13  1  0
 13 14  2  0
 13 15  1  0
 15 16  2  0
 16  5  1  0
 15  8  1  0
M  END
>  <Energy>  (31) 
-45.460236283255533

>  <Energy_Delta>  (31) 
4.57951863882775

>  <std_smi>  (31) 
CC(=O)Nc1ccc2nc(C)cc(O)c2c1

>  <enum_smi>  (31) 
C=C(O)N=C1C=CC2=NC(C)CC(=O)C2=C1

>  <enum_code>  (31) 
T

>  <parent_uuid>  (31) 
ea1addea-57d6-4931-9057-ca9db5b0445d

>  <o3da_score>  (31) 
67.370166173202435

>  <o3da_score_rel>  (31) 
0.26821042014301244

>  <o3da_align>  (31) 
0.212479857034992

>  <RMSD>  (31) 
0.21625010584429977

>  <CONVERGED>  (31) 
0

>  <ENERGY>  (31) 
-49.608722986601272

$$$$
0de8d7ea-06f9-4b34-b369-eb53778dc747
     RDKit          3D

 16 17  0  0  0  0  0  0  0  0999 V2000
   -6.5681   24.3485    5.0872 C   0  0  0  0  0  0  0  0  0  0  0  0
   -5.4970   25.1360    5.1974 C   0  0  0  0  0  0  0  0  0  0  0  0
   -4.9648   25.3270    6.4479 O   0  0  0  0  0  0  0  0  0  0  0  0
   -4.8222   25.6862    4.1400 N   0  0  0  0  0  0  0  0  0  0  0  0
   -4.2700   26.9833    4.0411 C   0  0  0  0  0  0  0  0  0  0  0  0
   -4.4394   27.9746    5.0184 C   0  0  0  0  0  0  0  0  0  0  0  0
   -3.8305   29.2313    4.8957 C   0  0  0  0  0  0  0  0  0  0  0  0
   -3.0293   29.5214    3.7927 C   0  0  0  0  0  0  0  0  0  0  0  0
   -2.4040   30.7658    3.6556 N   0  0  0  0  0  0  0  0  0  0  0  0
   -1.6082   31.0691    2.5712 C   0  0  0  0  0  0  0  0  0  0  0  0
   -1.0056   32.4460    2.5321 C   0  0  0  0  0  0  0  0  0  0  0  0
   -1.3721   30.1856    1.5866 C   0  0  0  0  0  0  0  0  0  0  0  0
   -1.9861   28.8366    1.6531 C   0  0  0  0  0  0  0  0  0  0  0  0
   -1.7842   28.0167    0.7643 O   0  0  0  0  0  0  0  0  0  0  0  0
   -2.8453   28.5291    2.8209 C   0  0  0  0  0  0  0  0  0  0  0  0
   -3.4525   27.2735    2.9416 C   0  0  0  0  0  0  0  0  0  0  0  0
  1  2  2  3
  2  3  1  0
  2  4  1  0
  4  5  1  0
  5  6  2  0
  6  7  1  0
  7  8  2  0
  8  9  1  0
  9 10  1  0
 10 11  1  0
 10 12  2  0
 12 13  1  0
 13 14  2  0
 13 15  1  0
 15 16  2  0
 16  5  1  0
 15  8  1  0
M  END
>  <Energy>  (32) 
-12.433295978811312

>  <Energy_Delta>  (32) 
0

>  <std_smi>  (32) 
CC(=O)Nc1ccc2nc(C)cc(O)c2c1

>  <enum_smi>  (32) 
C=C(O)Nc1ccc2[nH]c(C)cc(=O)c2c1

>  <enum_code>  (32) 
T

>  <parent_uuid>  (32) 
ea1addea-57d6-4931-9057-ca9db5b0445d

>  <o3da_score>  (32) 
72.96527328075841

>  <o3da_score_rel>  (32) 
0.29048535448419649

>  <o3da_align>  (32) 
0.39050284748141123

>  <RMSD>  (32) 
7.2505124391902443e-05

>  <CONVERGED>  (32) 
0

>  <ENERGY>  (32) 
-12.433295978834716

$$$$
0de8d7ea-06f9-4b34-b369-eb53778dc747
     RDKit          3D

 16 17  0  0  0  0  0  0  0  0999 V2000
   -5.8367   24.0416    5.5415 C   0  0  0  0  0  0  0  0  0  0  0  0
   -5.8016   25.2638    5.0082 C   0  0  0  0  0  0  0  0  0  0  0  0
   -6.8428   26.1151    5.2812 O   0  0  0  0  0  0  0  0  0  0  0  0
   -4.8540   25.6995    4.1202 N   0  0  0  0  0  0  0  0  0  0  0  0
   -4.2332   26.9679    4.0639 C   0  0  0  0  0  0  0  0  0  0  0  0
   -4.4304   27.9709    5.0240 C   0  0  0  0  0  0  0  0  0  0  0  0
   -3.8283   29.2304    4.8971 C   0  0  0  0  0  0  0  0  0  0  0  0
   -3.0198   29.5174    3.7986 C   0  0  0  0  0  0  0  0  0  0  0  0
   -2.4173   30.7714    3.6473 N   0  0  0  0  0  0  0  0  0  0  0  0
   -1.6150   31.0719    2.5670 C   0  0  0  0  0  0  0  0  0  0  0  0
   -1.0130   32.4491    2.5275 C   0  0  0  0  0  0  0  0  0  0  0  0
   -1.3727   30.1859    1.5862 C   0  0  0  0  0  0  0  0  0  0  0  0
   -1.9783   28.8333    1.6580 C   0  0  0  0  0  0  0  0  0  0  0  0
   -1.7684   28.0101    0.7741 O   0  0  0  0  0  0  0  0  0  0  0  0
   -2.8315   28.5233    2.8295 C   0  0  0  0  0  0  0  0  0  0  0  0
   -3.4319   27.2649    2.9544 C   0  0  0  0  0  0  0  0  0  0  0  0
  1  2  2  3
  2  3  1  0
  2  4  1  0
  4  5  1  0
  5  6  2  0
  6  7  1  0
  7  8  2  0
  8  9  1  0
  9 10  1  0
 10 11  1  0
 10 12  2  0
 12 13  1  0
 13 14  2  0
 13 15  1  0
 15 16  2  0
 16  5  1  0
 15  8  1  0
M  END
>  <Energy>  (33) 
-12.433295978699849

>  <Energy_Delta>  (33) 
1.1146283895868692e-10

>  <std_smi>  (33) 
CC(=O)Nc1ccc2nc(C)cc(O)c2c1

>  <enum_smi>  (33) 
C=C(O)Nc1ccc2[nH]c(C)cc(=O)c2c1

>  <enum_code>  (33) 
T

>  <parent_uuid>  (33) 
ea1addea-57d6-4931-9057-ca9db5b0445d

>  <o3da_score>  (33) 
73.110462133116641

>  <o3da_score_rel>  (33) 
0.29106337240077651

>  <o3da_align>  (33) 
0.38392479826333592

>  <RMSD>  (33) 
6.7581469491482667e-05

>  <CONVERGED>  (33) 
0

>  <ENERGY>  (33) 
-12.433295978834913

$$$$
0de8d7ea-06f9-4b34-b369-eb53778dc747
     RDKit          3D

 16 17  0  0  0  0  0  0  0  0999 V2000
   -7.6561   22.9615    2.1497 C   0  0  0  0  0  0  0  0  0  0  0  0
   -7.0975   23.5436    3.2124 C   0  0  0  0  0  0  0  0  0  0  0  0
   -7.9067   24.2879    4.0329 O   0  0  0  0  0  0  0  0  0  0  0  0
   -5.7947   23.3662    3.5996 N   0  0  0  0  0  0  0  0  0  0  0  0
   -4.8972   24.3321    4.1089 C   0  0  0  0  0  0  0  0  0  0  0  0
   -3.6715   23.8834    4.6292 C   0  0  0  0  0  0  0  0  0  0  0  0
   -2.7457   24.7714    5.1907 C   0  0  0  0  0  0  0  0  0  0  0  0
   -3.0283   26.1347    5.2482 C   0  0  0  0  0  0  0  0  0  0  0  0
   -2.1254   27.0381    5.8210 N   0  0  0  0  0  0  0  0  0  0  0  0
   -2.3819   28.3917    5.8764 C   0  0  0  0  0  0  0  0  0  0  0  0
   -1.3147   29.2638    6.4771 C   0  0  0  0  0  0  0  0  0  0  0  0
   -3.5285   28.9223    5.4196 C   0  0  0  0  0  0  0  0  0  0  0  0
   -4.5594   28.0356    4.8261 C   0  0  0  0  0  0  0  0  0  0  0  0
   -5.6172   28.5027    4.4200 O   0  0  0  0  0  0  0  0  0  0  0  0
   -4.2582   26.5856    4.7481 C   0  0  0  0  0  0  0  0  0  0  0  0
   -5.1860   25.6981    4.1861 C   0  0  0  0  0  0  0  0  0  0  0  0
  1  2  2  3
  2  3  1  0
  2  4  1  0
  4  5  1  0
  5  6  2  0
  6  7  1  0
  7  8  2  0
  8  9  1  0
  9 10  1  0
 10 11  1  0
 10 12  2  0
 12 13  1  0
 13 14  2  0
 13 15  1  0
 15 16  2  0
 16  5  1  0
 15  8  1  0
M  END
>  <Energy>  (34) 
-11.347513623406043

>  <Energy_Delta>  (34) 
1.0857823554052697

>  <std_smi>  (34) 
CC(=O)Nc1ccc2nc(C)cc(O)c2c1

>  <enum_smi>  (34) 
C=C(O)Nc1ccc2[nH]c(C)cc(=O)c2c1

>  <enum_code>  (34) 
T

>  <parent_uuid>  (34) 
ea1addea-57d6-4931-9057-ca9db5b0445d

>  <o3da_score>  (34) 
73.443137131592664

>  <o3da_score_rel>  (34) 
0.29238779990601577

>  <o3da_align>  (34) 
0.26383546961764248

>  <RMSD>  (34) 
7.4638344180686568e-05

>  <CONVERGED>  (34) 
0

>  <ENERGY>  (34) 
-11.3475136235081

$$$$
0de8d7ea-06f9-4b34-b369-eb53778dc747
     RDKit          3D

 16 17  0  0  0  0  0  0  0  0999 V2000
   -8.1228   22.8339    3.2162 C   0  0  0  0  0  0  0  0  0  0  0  0
   -7.0429   23.5973    3.0395 C   0  0  0  0  0  0  0  0  0  0  0  0
   -7.1143   24.5995    2.1052 O   0  0  0  0  0  0  0  0  0  0  0  0
   -5.8343   23.3863    3.6504 N   0  0  0  0  0  0  0  0  0  0  0  0
   -4.9430   24.3492    4.1757 C   0  0  0  0  0  0  0  0  0  0  0  0
   -3.6675   23.9172    4.5770 C   0  0  0  0  0  0  0  0  0  0  0  0
   -2.7116   24.8149    5.0682 C   0  0  0  0  0  0  0  0  0  0  0  0
   -3.0102   26.1725    5.1658 C   0  0  0  0  0  0  0  0  0  0  0  0
   -2.0640   27.0901    5.6372 N   0  0  0  0  0  0  0  0  0  0  0  0
   -2.3447   28.4352    5.7521 C   0  0  0  0  0  0  0  0  0  0  0  0
   -1.2598   29.3126    6.3123 C   0  0  0  0  0  0  0  0  0  0  0  0
   -3.5281   28.9536    5.3839 C   0  0  0  0  0  0  0  0  0  0  0  0
   -4.5808   28.0602    4.8407 C   0  0  0  0  0  0  0  0  0  0  0  0
   -5.6595   28.5206    4.4853 O   0  0  0  0  0  0  0  0  0  0  0  0
   -4.2746   26.6121    4.7486 C   0  0  0  0  0  0  0  0  0  0  0  0
   -5.2323   25.7149    4.2566 C   0  0  0  0  0  0  0  0  0  0  0  0
  1  2  2  3
  2  3  1  0
  2  4  1  0
  4  5  1  0
  5  6  2  0
  6  7  1  0
  7  8  2  0
  8  9  1  0
  9 10  1  0
 10 11  1  0
 10 12  2  0
 12 13  1  0
 13 14  2  0
 13 15  1  0
 15 16  2  0
 16  5  1  0
 15  8  1  0
M  END
>  <Energy>  (35) 
-11.347513622661946

>  <Energy_Delta>  (35) 
1.085782356149366

>  <std_smi>  (35) 
CC(=O)Nc1ccc2nc(C)cc(O)c2c1

>  <enum_smi>  (35) 
C=C(O)Nc1ccc2[nH]c(C)cc(=O)c2c1

>  <enum_code>  (35) 
T

>  <parent_uuid>  (35) 
ea1addea-57d6-4931-9057-ca9db5b0445d

>  <o3da_score>  (35) 
73.85192485888723

>  <o3da_score_rel>  (35) 
0.2940152432435475

>  <o3da_align>  (35) 
0.24114374378149525

>  <RMSD>  (35) 
7.1793689476322547e-05

>  <CONVERGED>  (35) 
0

>  <ENERGY>  (35) 
-11.347513623511691

$$$$
0de8d7ea-06f9-4b34-b369-eb53778dc747
     RDKit          3D

 16 17  0  0  0  0  0  0  0  0999 V2000
    0.1229   25.9365    5.1545 C   0  0  0  0  0  0  0  0  0  0  0  0
   -0.3083   24.9021    5.8784 C   0  0  0  0  0  0  0  0  0  0  0  0
    0.5924   24.3151    6.7330 O   0  0  0  0  0  0  0  0  0  0  0  0
   -1.5369   24.2979    5.8698 N   0  0  0  0  0  0  0  0  0  0  0  0
   -2.7511   24.7829    5.3455 C   0  0  0  0  0  0  0  0  0  0  0  0
   -3.6566   23.8797    4.7655 C   0  0  0  0  0  0  0  0  0  0  0  0
   -4.8794   24.3114    4.2352 C   0  0  0  0  0  0  0  0  0  0  0  0
   -5.2253   25.6612    4.2758 C   0  0  0  0  0  0  0  0  0  0  0  0
   -6.4511   26.1108    3.7705 N   0  0  0  0  0  0  0  0  0  0  0  0
   -6.8090   27.4421    3.7998 C   0  0  0  0  0  0  0  0  0  0  0  0
   -8.1332   27.8054    3.1876 C   0  0  0  0  0  0  0  0  0  0  0  0
   -6.0221   28.3834    4.3473 C   0  0  0  0  0  0  0  0  0  0  0  0
   -4.7161   27.9944    4.9346 C   0  0  0  0  0  0  0  0  0  0  0  0
   -3.9896   28.8411    5.4425 O   0  0  0  0  0  0  0  0  0  0  0  0
   -4.3343   26.5631    4.8737 C   0  0  0  0  0  0  0  0  0  0  0  0
   -3.1121   26.1328    5.4046 C   0  0  0  0  0  0  0  0  0  0  0  0
  1  2  2  3
  2  3  1  0
  2  4  1  0
  4  5  1  0
  5  6  2  0
  6  7  1  0
  7  8  2  0
  8  9  1  0
  9 10  1  0
 10 11  1  0
 10 12  2  0
 12 13  1  0
 13 14  2  0
 13 15  1  0
 15 16  2  0
 16  5  1  0
 15  8  1  0
M  END
>  <Energy>  (36) 
-9.1983819785074417

>  <Energy_Delta>  (36) 
3.2349140003038706

>  <std_smi>  (36) 
CC(=O)Nc1ccc2nc(C)cc(O)c2c1

>  <enum_smi>  (36) 
C=C(O)Nc1ccc2[nH]c(C)cc(=O)c2c1

>  <enum_code>  (36) 
T

>  <parent_uuid>  (36) 
ea1addea-57d6-4931-9057-ca9db5b0445d

>  <o3da_score>  (36) 
74.322777229156756

>  <o3da_score_rel>  (36) 
0.29588977494249935

>  <o3da_align>  (36) 
0.20849969840720631

>  <RMSD>  (36) 
0.14618921107692398

>  <CONVERGED>  (36) 
0

>  <ENERGY>  (36) 
-7.0078559842297707

$$$$
0de8d7ea-06f9-4b34-b369-eb53778dc747
     RDKit          3D

 16 17  0  0  0  0  0  0  0  0999 V2000
   -5.2473   27.3996    3.4973 C   0  0  0  0  0  0  0  0  0  0  0  0
   -4.5140   27.7858    4.5429 C   0  0  0  0  0  0  0  0  0  0  0  0
   -4.8144   27.2283    5.7613 O   0  0  0  0  0  0  0  0  0  0  0  0
   -3.5032   28.7087    4.5890 N   0  0  0  0  0  0  0  0  0  0  0  0
   -2.7500   29.2349    3.5199 C   0  0  0  0  0  0  0  0  0  0  0  0
   -2.3686   28.4602    2.4145 C   0  0  0  0  0  0  0  0  0  0  0  0
   -1.6046   29.0012    1.3718 C   0  0  0  0  0  0  0  0  0  0  0  0
   -1.2010   30.3345    1.4148 C   0  0  0  0  0  0  0  0  0  0  0  0
   -0.4185   30.8900    0.3956 N   0  0  0  0  0  0  0  0  0  0  0  0
   -0.0167   32.2091    0.4198 C   0  0  0  0  0  0  0  0  0  0  0  0
    0.7769   32.7010   -0.7586 C   0  0  0  0  0  0  0  0  0  0  0  0
   -0.3118   33.0294    1.4423 C   0  0  0  0  0  0  0  0  0  0  0  0
   -1.1052   32.5152    2.5856 C   0  0  0  0  0  0  0  0  0  0  0  0
   -1.3735   33.2438    3.5345 O   0  0  0  0  0  0  0  0  0  0  0  0
   -1.5564   31.1046    2.5303 C   0  0  0  0  0  0  0  0  0  0  0  0
   -2.3193   30.5656    3.5735 C   0  0  0  0  0  0  0  0  0  0  0  0
  1  2  2  3
  2  3  1  0
  2  4  1  0
  4  5  1  0
  5  6  2  0
  6  7  1  0
  7  8  2  0
  8  9  1  0
  9 10  1  0
 10 11  1  0
 10 12  2  0
 12 13  1  0
 13 14  2  0
 13 15  1  0
 15 16  2  0
 16  5  1  0
 15  8  1  0
M  END
>  <Energy>  (37) 
-8.926575399653597

>  <Energy_Delta>  (37) 
3.5067205791577152

>  <std_smi>  (37) 
CC(=O)Nc1ccc2nc(C)cc(O)c2c1

>  <enum_smi>  (37) 
C=C(O)Nc1ccc2[nH]c(C)cc(=O)c2c1

>  <enum_code>  (37) 
T

>  <parent_uuid>  (37) 
ea1addea-57d6-4931-9057-ca9db5b0445d

>  <o3da_score>  (37) 
106.69948716568082

>  <o3da_score_rel>  (37) 
0.42478616140232189

>  <o3da_align>  (37) 
0.43568129741576217

>  <RMSD>  (37) 
0.13430905570878213

>  <CONVERGED>  (37) 
0

>  <ENERGY>  (37) 
-7.8047108731301789

$$$$
0de8d7ea-06f9-4b34-b369-eb53778dc747
     RDKit          3D

 16 17  0  0  0  0  0  0  0  0999 V2000
   -3.3944   21.8471    2.3445 C   0  0  0  0  0  0  0  0  0  0  0  0
   -3.0765   21.6696    3.6281 C   0  0  0  0  0  0  0  0  0  0  0  0
   -2.8318   20.3836    4.0427 O   0  0  0  0  0  0  0  0  0  0  0  0
   -2.9172   22.6095    4.6113 N   0  0  0  0  0  0  0  0  0  0  0  0
   -3.3671   23.9454    4.6252 C   0  0  0  0  0  0  0  0  0  0  0  0
   -4.5943   24.3325    4.0671 C   0  0  0  0  0  0  0  0  0  0  0  0
   -5.0283   25.6642    4.1086 C   0  0  0  0  0  0  0  0  0  0  0  0
   -4.2412   26.6412    4.7156 C   0  0  0  0  0  0  0  0  0  0  0  0
   -4.6648   27.9735    4.7888 N   0  0  0  0  0  0  0  0  0  0  0  0
   -3.8950   28.9533    5.3796 C   0  0  0  0  0  0  0  0  0  0  0  0
   -4.4363   30.3557    5.3492 C   0  0  0  0  0  0  0  0  0  0  0  0
   -2.7139   28.6834    5.9610 C   0  0  0  0  0  0  0  0  0  0  0  0
   -2.2034   27.2904    5.9652 C   0  0  0  0  0  0  0  0  0  0  0  0
   -1.1346   27.0211    6.5021 O   0  0  0  0  0  0  0  0  0  0  0  0
   -3.0272   26.2543    5.2987 C   0  0  0  0  0  0  0  0  0  0  0  0
   -2.5922   24.9239    5.2586 C   0  0  0  0  0  0  0  0  0  0  0  0
  1  2  2  3
  2  3  1  0
  2  4  1  0
  4  5  1  0
  5  6  2  0
  6  7  1  0
  7  8  2  0
  8  9  1  0
  9 10  1  0
 10 11  1  0
 10 12  2  0
 12 13  1  0
 13 14  2  0
 13 15  1  0
 15 16  2  0
 16  5  1  0
 15  8  1  0
M  END
>  <Energy>  (38) 
-7.8047108730351722

>  <Energy_Delta>  (38) 
4.62858510577614

>  <std_smi>  (38) 
CC(=O)Nc1ccc2nc(C)cc(O)c2c1

>  <enum_smi>  (38) 
C=C(O)Nc1ccc2[nH]c(C)cc(=O)c2c1

>  <enum_code>  (38) 
T

>  <parent_uuid>  (38) 
ea1addea-57d6-4931-9057-ca9db5b0445d

>  <o3da_score>  (38) 
72.002171170762324

>  <o3da_score_rel>  (38) 
0.28665110504953473

>  <o3da_align>  (38) 
0.33086471132093964

>  <RMSD>  (38) 
7.4058813108512908e-05

>  <CONVERGED>  (38) 
0

>  <ENERGY>  (38) 
-7.8047108726809284

$$$$
0de8d7ea-06f9-4b34-b369-eb53778dc747
     RDKit          3D

 16 17  0  0  0  0  0  0  0  0999 V2000
   -3.3858   24.0483    3.7173 C   0  0  0  0  0  0  0  0  0  0  0  0
   -4.6311   24.4732    3.9377 C   0  0  0  0  0  0  0  0  0  0  0  0
   -5.6291   23.5299    3.9171 O   0  0  0  0  0  0  0  0  0  0  0  0
   -5.0711   25.7373    4.2261 N   0  0  0  0  0  0  0  0  0  0  0  0
   -4.3952   26.9621    4.0605 C   0  0  0  0  0  0  0  0  0  0  0  0
   -4.6056   27.9923    4.9914 C   0  0  0  0  0  0  0  0  0  0  0  0
   -3.9616   29.2304    4.8677 C   0  0  0  0  0  0  0  0  0  0  0  0
   -3.0915   29.4665    3.8047 C   0  0  0  0  0  0  0  0  0  0  0  0
   -2.4539   30.7034    3.6508 N   0  0  0  0  0  0  0  0  0  0  0  0
   -1.5882   30.9541    2.6073 C   0  0  0  0  0  0  0  0  0  0  0  0
   -0.9332   32.3070    2.5751 C   0  0  0  0  0  0  0  0  0  0  0  0
   -1.3319   30.0421    1.6545 C   0  0  0  0  0  0  0  0  0  0  0  0
   -1.9866   28.7121    1.7196 C   0  0  0  0  0  0  0  0  0  0  0  0
   -1.7668   27.8716    0.8548 O   0  0  0  0  0  0  0  0  0  0  0  0
   -2.8957   28.4488    2.8609 C   0  0  0  0  0  0  0  0  0  0  0  0
   -3.5392   27.2112    2.9829 C   0  0  0  0  0  0  0  0  0  0  0  0
  1  2  2  3
  2  3  1  0
  2  4  1  0
  4  5  1  0
  5  6  2  0
  6  7  1  0
  7  8  2  0
  8  9  1  0
  9 10  1  0
 10 11  1  0
 10 12  2  0
 12 13  1  0
 13 14  2  0
 13 15  1  0
 15 16  2  0
 16  5  1  0
 15  8  1  0
M  END
>  <Energy>  (39) 
-7.0078559841216821

>  <Energy_Delta>  (39) 
5.4254399946896301

>  <std_smi>  (39) 
CC(=O)Nc1ccc2nc(C)cc(O)c2c1

>  <enum_smi>  (39) 
C=C(O)Nc1ccc2[nH]c(C)cc(=O)c2c1

>  <enum_code>  (39) 
T

>  <parent_uuid>  (39) 
ea1addea-57d6-4931-9057-ca9db5b0445d

>  <o3da_score>  (39) 
91.669517608961726

>  <o3da_score_rel>  (39) 
0.36494966880438934

>  <o3da_align>  (39) 
0.48361813054803765

>  <RMSD>  (39) 
7.2789157057752732e-05

>  <CONVERGED>  (39) 
0

>  <ENERGY>  (39) 
-7.0078559842222639

$$$$
db7f64c8-25cb-4dba-853d-40429f1a5008
     RDKit          3D

 16 17  0  0  0  0  0  0  0  0999 V2000
   -6.4748   29.4893    5.1075 C   0  0  0  0  0  0  0  0  0  0  0  0
   -5.8295   28.5103    4.4714 C   0  0  0  0  0  0  0  0  0  0  0  0
   -6.2650   28.1613    3.2177 O   0  0  0  0  0  0  0  0  0  0  0  0
   -4.6952   27.8964    4.9329 N   0  0  0  0  0  0  0  0  0  0  0  0
   -4.3618   26.5251    4.8683 C   0  0  0  0  0  0  0  0  0  0  0  0
   -5.2301   25.5368    4.3896 C   0  0  0  0  0  0  0  0  0  0  0  0
   -4.8289   24.1965    4.3073 C   0  0  0  0  0  0  0  0  0  0  0  0
   -3.5473   23.8079    4.7049 C   0  0  0  0  0  0  0  0  0  0  0  0
   -2.6648   24.7983    5.1416 C   0  0  0  0  0  0  0  0  0  0  0  0
   -3.0658   26.1393    5.2315 C   0  0  0  0  0  0  0  0  0  0  0  0
   -1.2851   24.4140    5.5138 C   0  0  0  0  0  0  0  0  0  0  0  0
   -0.5349   25.2454    6.0249 O   0  0  0  0  0  0  0  0  0  0  0  0
   -0.8088   23.0131    5.1738 C   0  0  0  0  0  0  0  0  0  0  0  0
   -1.9262   22.0073    5.0183 C   0  0  0  0  0  0  0  0  0  0  0  0
   -1.7009   20.7105    5.2829 C   0  0  0  0  0  0  0  0  0  0  0  0
   -3.1527   22.4680    4.5956 N   0  0  0  0  0  0  0  0  0  0  0  0
  1  2  2  3
  2  3  1  0
  2  4  1  0
  4  5  1  0
  5  6  2  0
  6  7  1  0
  7  8  2  0
  8  9  1  0
  9 10  2  0
  9 11  1  0
 11 12  2  0
 11 13  1  0
 13 14  1  0
 14 15  2  3
 14 16  1  0
 10  5  1  0
 16  8  1  0
M  END
>  <Energy>  (40) 
-4.3829837390809345

>  <Energy_Delta>  (40) 
0

>  <std_smi>  (40) 
CC(=O)Nc1ccc2nc(C)cc(O)c2c1

>  <enum_smi>  (40) 
C=C(O)Nc1ccc2c(c1)C(=O)CC(=C)N2

>  <enum_code>  (40) 
T

>  <parent_uuid>  (40) 
ea1addea-57d6-4931-9057-ca9db5b0445d

>  <o3da_score>  (40) 
81.684977531756715

>  <o3da_score_rel>  (40) 
0.32519976404451206

>  <o3da_align>  (40) 
0.20176833925510257

>  <RMSD>  (40) 
6.5122759419170538e-05

>  <CONVERGED>  (40) 
0

>  <ENERGY>  (40) 
-4.382983739263306

$$$$
db7f64c8-25cb-4dba-853d-40429f1a5008
     RDKit          3D

 16 17  0  0  0  0  0  0  0  0999 V2000
   -3.1047   20.3107    4.5307 C   0  0  0  0  0  0  0  0  0  0  0  0
   -3.2440   21.5278    4.0027 C   0  0  0  0  0  0  0  0  0  0  0  0
   -3.8087   21.6274    2.7560 O   0  0  0  0  0  0  0  0  0  0  0  0
   -2.7683   22.6814    4.5679 N   0  0  0  0  0  0  0  0  0  0  0  0
   -3.3958   23.9461    4.6207 C   0  0  0  0  0  0  0  0  0  0  0  0
   -4.6989   24.1856    4.1687 C   0  0  0  0  0  0  0  0  0  0  0  0
   -5.2546   25.4716    4.2054 C   0  0  0  0  0  0  0  0  0  0  0  0
   -4.5215   26.5537    4.6985 C   0  0  0  0  0  0  0  0  0  0  0  0
   -3.2063   26.3255    5.1092 C   0  0  0  0  0  0  0  0  0  0  0  0
   -2.6499   25.0383    5.0801 C   0  0  0  0  0  0  0  0  0  0  0  0
   -2.3954   27.4695    5.5820 C   0  0  0  0  0  0  0  0  0  0  0  0
   -1.2835   27.2710    6.0713 O   0  0  0  0  0  0  0  0  0  0  0  0
   -2.9340   28.8731    5.3704 C   0  0  0  0  0  0  0  0  0  0  0  0
   -4.4374   28.9371    5.2282 C   0  0  0  0  0  0  0  0  0  0  0  0
   -5.0979   30.0461    5.5977 C   0  0  0  0  0  0  0  0  0  0  0  0
   -5.0821   27.8377    4.7078 N   0  0  0  0  0  0  0  0  0  0  0  0
  1  2  2  3
  2  3  1  0
  2  4  1  0
  4  5  1  0
  5  6  2  0
  6  7  1  0
  7  8  2  0
  8  9  1  0
  9 10  2  0
  9 11  1  0
 11 12  2  0
 11 13  1  0
 13 14  1  0
 14 15  2  3
 14 16  1  0
 10  5  1  0
 16  8  1  0
M  END
>  <Energy>  (41) 
-4.3829837387105073

>  <Energy_Delta>  (41) 
3.7042724443381303e-10

>  <std_smi>  (41) 
CC(=O)Nc1ccc2nc(C)cc(O)c2c1

>  <enum_smi>  (41) 
C=C(O)Nc1ccc2c(c1)C(=O)CC(=C)N2

>  <enum_code>  (41) 
T

>  <parent_uuid>  (41) 
ea1addea-57d6-4931-9057-ca9db5b0445d

>  <o3da_score>  (41) 
68.05825967571279

>  <o3da_score_rel>  (41) 
0.27094982035365622

>  <o3da_align>  (41) 
0.50806807356959227

>  <RMSD>  (41) 
7.3496370029443381e-05

>  <CONVERGED>  (41) 
0

>  <ENERGY>  (41) 
-4.3829837392246098

$$$$
db7f64c8-25cb-4dba-853d-40429f1a5008
     RDKit          3D

 16 17  0  0  0  0  0  0  0  0999 V2000
   -7.6545   22.9661    2.1147 C   0  0  0  0  0  0  0  0  0  0  0  0
   -7.1055   23.5523    3.1802 C   0  0  0  0  0  0  0  0  0  0  0  0
   -7.9247   24.2907    3.9962 O   0  0  0  0  0  0  0  0  0  0  0  0
   -5.8031   23.3846    3.5732 N   0  0  0  0  0  0  0  0  0  0  0  0
   -4.9165   24.3537    4.0933 C   0  0  0  0  0  0  0  0  0  0  0  0
   -3.6885   23.9153    4.6105 C   0  0  0  0  0  0  0  0  0  0  0  0
   -2.7785   24.8110    5.1849 C   0  0  0  0  0  0  0  0  0  0  0  0
   -3.0829   26.1706    5.2797 C   0  0  0  0  0  0  0  0  0  0  0  0
   -4.2974   26.6139    4.7483 C   0  0  0  0  0  0  0  0  0  0  0  0
   -5.2145   25.7169    4.1778 C   0  0  0  0  0  0  0  0  0  0  0  0
   -4.6119   28.0599    4.8010 C   0  0  0  0  0  0  0  0  0  0  0  0
   -5.7333   28.4574    4.4873 O   0  0  0  0  0  0  0  0  0  0  0  0
   -3.4999   29.0258    5.1679 C   0  0  0  0  0  0  0  0  0  0  0  0
   -2.4056   28.4035    6.0040 C   0  0  0  0  0  0  0  0  0  0  0  0
   -1.7114   29.1595    6.8695 C   0  0  0  0  0  0  0  0  0  0  0  0
   -2.1540   27.0607    5.8353 N   0  0  0  0  0  0  0  0  0  0  0  0
  1  2  2  3
  2  3  1  0
  2  4  1  0
  4  5  1  0
  5  6  2  0
  6  7  1  0
  7  8  2  0
  8  9  1  0
  9 10  2  0
  9 11  1  0
 11 12  2  0
 11 13  1  0
 13 14  1  0
 14 15  2  3
 14 16  1  0
 10  5  1  0
 16  8  1  0
M  END
>  <Energy>  (42) 
-3.2965460366310282

>  <Energy_Delta>  (42) 
1.0864377024499063

>  <std_smi>  (42) 
CC(=O)Nc1ccc2nc(C)cc(O)c2c1

>  <enum_smi>  (42) 
C=C(O)Nc1ccc2c(c1)C(=O)CC(=C)N2

>  <enum_code>  (42) 
T

>  <parent_uuid>  (42) 
ea1addea-57d6-4931-9057-ca9db5b0445d

>  <o3da_score>  (42) 
76.131235682930296

>  <o3da_score_rel>  (42) 
0.30308951080853197

>  <o3da_align>  (42) 
0.21114952663252581

>  <RMSD>  (42) 
5.7143915160566108e-05

>  <CONVERGED>  (42) 
0

>  <ENERGY>  (42) 
-3.2965460366739663

$$$$
db7f64c8-25cb-4dba-853d-40429f1a5008
     RDKit          3D

 16 17  0  0  0  0  0  0  0  0999 V2000
   -8.1534   22.8178    3.3157 C   0  0  0  0  0  0  0  0  0  0  0  0
   -7.0693   23.5631    3.0930 C   0  0  0  0  0  0  0  0  0  0  0  0
   -7.1435   24.5229    2.1155 O   0  0  0  0  0  0  0  0  0  0  0  0
   -5.8559   23.3689    3.7004 N   0  0  0  0  0  0  0  0  0  0  0  0
   -4.9469   24.3447    4.1664 C   0  0  0  0  0  0  0  0  0  0  0  0
   -3.6760   23.9190    4.5805 C   0  0  0  0  0  0  0  0  0  0  0  0
   -2.7061   24.8325    5.0104 C   0  0  0  0  0  0  0  0  0  0  0  0
   -2.9731   26.2033    5.0154 C   0  0  0  0  0  0  0  0  0  0  0  0
   -4.2447   26.6296    4.6214 C   0  0  0  0  0  0  0  0  0  0  0  0
   -5.2169   25.7162    4.1836 C   0  0  0  0  0  0  0  0  0  0  0  0
   -4.5558   28.0766    4.6660 C   0  0  0  0  0  0  0  0  0  0  0  0
   -5.6051   28.4955    4.1788 O   0  0  0  0  0  0  0  0  0  0  0  0
   -3.5937   28.9979    5.3937 C   0  0  0  0  0  0  0  0  0  0  0  0
   -2.1788   28.4708    5.4581 C   0  0  0  0  0  0  0  0  0  0  0  0
   -1.1462   29.3274    5.5090 C   0  0  0  0  0  0  0  0  0  0  0  0
   -2.0023   27.1057    5.4702 N   0  0  0  0  0  0  0  0  0  0  0  0
  1  2  2  3
  2  3  1  0
  2  4  1  0
  4  5  1  0
  5  6  2  0
  6  7  1  0
  7  8  2  0
  8  9  1  0
  9 10  2  0
  9 11  1  0
 11 12  2  0
 11 13  1  0
 13 14  1  0
 14 15  2  3
 14 16  1  0
 10  5  1  0
 16  8  1  0
M  END
>  <Energy>  (43) 
-3.2965460364633259

>  <Energy_Delta>  (43) 
1.0864377026176086

>  <std_smi>  (43) 
CC(=O)Nc1ccc2nc(C)cc(O)c2c1

>  <enum_smi>  (43) 
C=C(O)Nc1ccc2c(c1)C(=O)CC(=C)N2

>  <enum_code>  (43) 
T

>  <parent_uuid>  (43) 
ea1addea-57d6-4931-9057-ca9db5b0445d

>  <o3da_score>  (43) 
74.404095624947018

>  <o3da_score_rel>  (43) 
0.29621351529136813

>  <o3da_align>  (43) 
0.31530348674409248

>  <RMSD>  (43) 
5.9215227229554761e-05

>  <CONVERGED>  (43) 
0

>  <ENERGY>  (43) 
-3.2965460366739752

$$$$
db7f64c8-25cb-4dba-853d-40429f1a5008
     RDKit          3D

 16 17  0  0  0  0  0  0  0  0999 V2000
   -0.5729   25.6702    7.1987 C   0  0  0  0  0  0  0  0  0  0  0  0
   -0.3929   24.8659    6.1497 C   0  0  0  0  0  0  0  0  0  0  0  0
    0.8853   24.4242    5.9097 O   0  0  0  0  0  0  0  0  0  0  0  0
   -1.3220   24.3708    5.2739 N   0  0  0  0  0  0  0  0  0  0  0  0
   -2.6411   24.8114    5.0511 C   0  0  0  0  0  0  0  0  0  0  0  0
   -3.6314   23.8743    4.7245 C   0  0  0  0  0  0  0  0  0  0  0  0
   -4.9549   24.2682    4.4903 C   0  0  0  0  0  0  0  0  0  0  0  0
   -5.3252   25.6122    4.5810 C   0  0  0  0  0  0  0  0  0  0  0  0
   -4.3303   26.5533    4.8589 C   0  0  0  0  0  0  0  0  0  0  0  0
   -3.0055   26.1603    5.1002 C   0  0  0  0  0  0  0  0  0  0  0  0
   -4.6943   27.9879    4.8956 C   0  0  0  0  0  0  0  0  0  0  0  0
   -3.8722   28.8226    5.2728 O   0  0  0  0  0  0  0  0  0  0  0  0
   -6.0625   28.3974    4.3810 C   0  0  0  0  0  0  0  0  0  0  0  0
   -7.0921   27.2927    4.4395 C   0  0  0  0  0  0  0  0  0  0  0  0
   -8.3912   27.5948    4.5936 C   0  0  0  0  0  0  0  0  0  0  0  0
   -6.6485   25.9947    4.3218 N   0  0  0  0  0  0  0  0  0  0  0  0
  1  2  2  3
  2  3  1  0
  2  4  1  0
  4  5  1  0
  5  6  2  0
  6  7  1  0
  7  8  2  0
  8  9  1  0
  9 10  2  0
  9 11  1  0
 11 12  2  0
 11 13  1  0
 13 14  1  0
 14 15  2  3
 14 16  1  0
 10  5  1  0
 16  8  1  0
M  END
>  <Energy>  (44) 
-1.2040284919350821

>  <Energy_Delta>  (44) 
3.1789552471458524

>  <std_smi>  (44) 
CC(=O)Nc1ccc2nc(C)cc(O)c2c1

>  <enum_smi>  (44) 
C=C(O)Nc1ccc2c(c1)C(=O)CC(=C)N2

>  <enum_code>  (44) 
T

>  <parent_uuid>  (44) 
ea1addea-57d6-4931-9057-ca9db5b0445d

>  <o3da_score>  (44) 
74.924028877225126

>  <o3da_score_rel>  (44) 
0.29828344511284605

>  <o3da_align>  (44) 
0.28446274939378174

>  <RMSD>  (44) 
0.13613947097335291

>  <CONVERGED>  (44) 
0

>  <ENERGY>  (44) 
0.98784245067215259

$$$$
db7f64c8-25cb-4dba-853d-40429f1a5008
     RDKit          3D

 16 17  0  0  0  0  0  0  0  0999 V2000
   -2.6005   29.1412    4.4268 C   0  0  0  0  0  0  0  0  0  0  0  0
   -3.8268   29.0388    4.9427 C   0  0  0  0  0  0  0  0  0  0  0  0
   -4.4038   30.1884    5.4234 O   0  0  0  0  0  0  0  0  0  0  0  0
   -4.6310   27.9341    5.0316 N   0  0  0  0  0  0  0  0  0  0  0  0
   -4.2695   26.5768    4.9236 C   0  0  0  0  0  0  0  0  0  0  0  0
   -3.0607   26.0766    5.4224 C   0  0  0  0  0  0  0  0  0  0  0  0
   -2.7368   24.7178    5.3152 C   0  0  0  0  0  0  0  0  0  0  0  0
   -3.6263   23.8171    4.7246 C   0  0  0  0  0  0  0  0  0  0  0  0
   -4.8259   24.3162    4.2116 C   0  0  0  0  0  0  0  0  0  0  0  0
   -5.1557   25.6751    4.3241 C   0  0  0  0  0  0  0  0  0  0  0  0
   -5.7614   23.3837    3.5441 C   0  0  0  0  0  0  0  0  0  0  0  0
   -6.8788   23.7749    3.2066 O   0  0  0  0  0  0  0  0  0  0  0  0
   -5.2759   21.9824    3.2195 C   0  0  0  0  0  0  0  0  0  0  0  0
   -4.1322   21.5127    4.0888 C   0  0  0  0  0  0  0  0  0  0  0  0
   -3.9690   20.2018    4.3288 C   0  0  0  0  0  0  0  0  0  0  0  0
   -3.2816   22.4645    4.6037 N   0  0  0  0  0  0  0  0  0  0  0  0
  1  2  2  3
  2  3  1  0
  2  4  1  0
  4  5  1  0
  5  6  2  0
  6  7  1  0
  7  8  2  0
  8  9  1  0
  9 10  2  0
  9 11  1  0
 11 12  2  0
 11 13  1  0
 13 14  1  0
 14 15  2  3
 14 16  1  0
 10  5  1  0
 16  8  1  0
M  END
>  <Energy>  (45) 
-0.95941979093005259

>  <Energy_Delta>  (45) 
3.4235639481508819

>  <std_smi>  (45) 
CC(=O)Nc1ccc2nc(C)cc(O)c2c1

>  <enum_smi>  (45) 
C=C(O)Nc1ccc2c(c1)C(=O)CC(=C)N2

>  <enum_code>  (45) 
T

>  <parent_uuid>  (45) 
ea1addea-57d6-4931-9057-ca9db5b0445d

>  <o3da_score>  (45) 
82.557340237949489

>  <o3da_score_rel>  (45) 
0.32867276672857143

>  <o3da_align>  (45) 
0.13289507425920505

>  <RMSD>  (45) 
0.13887411842115804

>  <CONVERGED>  (45) 
0

>  <ENERGY>  (45) 
0.27979831700986857

$$$$
db7f64c8-25cb-4dba-853d-40429f1a5008
     RDKit          3D

 16 17  0  0  0  0  0  0  0  0999 V2000
   -1.6407   31.2084    4.1314 C   0  0  0  0  0  0  0  0  0  0  0  0
   -1.2139   30.6940    5.2861 C   0  0  0  0  0  0  0  0  0  0  0  0
   -0.4303   31.4954    6.0793 O   0  0  0  0  0  0  0  0  0  0  0  0
   -1.4156   29.4381    5.7942 N   0  0  0  0  0  0  0  0  0  0  0  0
   -2.3855   28.4880    5.4164 C   0  0  0  0  0  0  0  0  0  0  0  0
   -3.6846   28.8467    5.0369 C   0  0  0  0  0  0  0  0  0  0  0  0
   -4.6319   27.8777    4.6817 C   0  0  0  0  0  0  0  0  0  0  0  0
   -4.3030   26.5201    4.6947 C   0  0  0  0  0  0  0  0  0  0  0  0
   -3.0244   26.1565    5.1237 C   0  0  0  0  0  0  0  0  0  0  0  0
   -2.0719   27.1254    5.4735 C   0  0  0  0  0  0  0  0  0  0  0  0
   -2.6786   24.7200    5.2075 C   0  0  0  0  0  0  0  0  0  0  0  0
   -1.5246   24.3828    5.4724 O   0  0  0  0  0  0  0  0  0  0  0  0
   -3.7890   23.6973    5.0454 C   0  0  0  0  0  0  0  0  0  0  0  0
   -4.9946   24.2119    4.2933 C   0  0  0  0  0  0  0  0  0  0  0  0
   -5.7646   23.3584    3.5995 C   0  0  0  0  0  0  0  0  0  0  0  0
   -5.2661   25.5600    4.3568 N   0  0  0  0  0  0  0  0  0  0  0  0
  1  2  2  3
  2  3  1  0
  2  4  1  0
  4  5  1  0
  5  6  2  0
  6  7  1  0
  7  8  2  0
  8  9  1  0
  9 10  2  0
  9 11  1  0
 11 12  2  0
 11 13  1  0
 13 14  1  0
 14 15  2  3
 14 16  1  0
 10  5  1  0
 16  8  1  0
M  END
>  <Energy>  (46) 
0.25614222809690013

>  <Energy_Delta>  (46) 
4.6391259671778347

>  <std_smi>  (46) 
CC(=O)Nc1ccc2nc(C)cc(O)c2c1

>  <enum_smi>  (46) 
C=C(O)Nc1ccc2c(c1)C(=O)CC(=C)N2

>  <enum_code>  (46) 
T

>  <parent_uuid>  (46) 
ea1addea-57d6-4931-9057-ca9db5b0445d

>  <o3da_score>  (46) 
78.819902279903502

>  <o3da_score_rel>  (46) 
0.31379348318325812

>  <o3da_align>  (46) 
0.31355881723421736

>  <RMSD>  (46) 
6.7952222928327791e-05

>  <CONVERGED>  (46) 
0

>  <ENERGY>  (46) 
0.2561422278469907

$$$$
c78e88cd-fb1e-45e2-8e77-a733e9787d9d
     RDKit          3D

 16 17  0  0  0  0  0  0  0  0999 V2000
   -3.7515   30.2331    4.7454 C   0  0  0  0  0  0  0  0  0  0  0  0
   -3.8613   29.0163    5.2812 C   0  0  0  0  0  0  0  0  0  0  0  0
   -3.3460   28.8189    6.5376 O   0  0  0  0  0  0  0  0  0  0  0  0
   -4.5440   27.9737    4.7117 N   0  0  0  0  0  0  0  0  0  0  0  0
   -4.1804   26.6094    4.6818 C   0  0  0  0  0  0  0  0  0  0  0  0
   -2.9597   26.1203    5.1604 C   0  0  0  0  0  0  0  0  0  0  0  0
   -2.6775   24.7479    5.1495 C   0  0  0  0  0  0  0  0  0  0  0  0
   -3.6085   23.8254    4.6712 C   0  0  0  0  0  0  0  0  0  0  0  0
   -4.8281   24.3095    4.2040 C   0  0  0  0  0  0  0  0  0  0  0  0
   -5.1187   25.6820    4.2116 C   0  0  0  0  0  0  0  0  0  0  0  0
   -5.8202   23.3475    3.6998 C   0  0  0  0  0  0  0  0  0  0  0  0
   -6.9049   23.7361    3.2726 O   0  0  0  0  0  0  0  0  0  0  0  0
   -5.4598   21.8949    3.7271 C   0  0  0  0  0  0  0  0  0  0  0  0
   -4.0938   21.5799    4.2639 C   0  0  0  0  0  0  0  0  0  0  0  0
   -3.6845   20.1299    4.3014 C   0  0  0  0  0  0  0  0  0  0  0  0
   -3.2560   22.4694    4.6929 N   0  0  0  0  0  0  0  0  0  0  0  0
  1  2  2  3
  2  3  1  0
  2  4  1  0
  4  5  1  0
  5  6  2  0
  6  7  1  0
  7  8  2  0
  8  9  1  0
  9 10  2  0
  9 11  1  0
 11 12  2  0
 11 13  1  0
 13 14  1  0
 14 15  1  0
 14 16  2  0
 10  5  1  0
 16  8  1  0
M  END
>  <Energy>  (47) 
-25.328947359991936

>  <Energy_Delta>  (47) 
0

>  <std_smi>  (47) 
CC(=O)Nc1ccc2nc(C)cc(O)c2c1

>  <enum_smi>  (47) 
C=C(O)Nc1ccc2c(c1)C(=O)CC(C)=N2

>  <enum_code>  (47) 
T

>  <parent_uuid>  (47) 
ea1addea-57d6-4931-9057-ca9db5b0445d

>  <o3da_score>  (47) 
82.193226421399572

>  <o3da_score_rel>  (47) 
0.32722317672064932

>  <o3da_align>  (47) 
0.17806103340126114

>  <RMSD>  (47) 
6.687545520690422e-05

>  <CONVERGED>  (47) 
0

>  <ENERGY>  (47) 
-25.32894736000409

$$$$
c78e88cd-fb1e-45e2-8e77-a733e9787d9d
     RDKit          3D

 16 17  0  0  0  0  0  0  0  0999 V2000
   -4.2793   30.1762    5.5478 C   0  0  0  0  0  0  0  0  0  0  0  0
   -3.8912   29.0875    4.8816 C   0  0  0  0  0  0  0  0  0  0  0  0
   -2.6647   29.1139    4.2668 O   0  0  0  0  0  0  0  0  0  0  0  0
   -4.6722   27.9803    4.6772 N   0  0  0  0  0  0  0  0  0  0  0  0
   -4.2830   26.6232    4.7136 C   0  0  0  0  0  0  0  0  0  0  0  0
   -3.0051   26.1915    5.0864 C   0  0  0  0  0  0  0  0  0  0  0  0
   -2.6639   24.8329    5.0540 C   0  0  0  0  0  0  0  0  0  0  0  0
   -3.5838   23.8694    4.6388 C   0  0  0  0  0  0  0  0  0  0  0  0
   -4.8530   24.2984    4.2576 C   0  0  0  0  0  0  0  0  0  0  0  0
   -5.2026   25.6568    4.2870 C   0  0  0  0  0  0  0  0  0  0  0  0
   -5.8316   23.2935    3.8148 C   0  0  0  0  0  0  0  0  0  0  0  0
   -6.9638   23.6317    3.4774 O   0  0  0  0  0  0  0  0  0  0  0  0
   -5.3988   21.8607    3.7926 C   0  0  0  0  0  0  0  0  0  0  0  0
   -3.9911   21.6058    4.2471 C   0  0  0  0  0  0  0  0  0  0  0  0
   -3.5151   20.1758    4.2500 C   0  0  0  0  0  0  0  0  0  0  0  0
   -3.1701   22.5307    4.6314 N   0  0  0  0  0  0  0  0  0  0  0  0
  1  2  2  3
  2  3  1  0
  2  4  1  0
  4  5  1  0
  5  6  2  0
  6  7  1  0
  7  8  2  0
  8  9  1  0
  9 10  2  0
  9 11  1  0
 11 12  2  0
 11 13  1  0
 13 14  1  0
 14 15  1  0
 14 16  2  0
 10  5  1  0
 16  8  1  0
M  END
>  <Energy>  (48) 
-25.328947359980226

>  <Energy_Delta>  (48) 
1.1709744285326451e-11

>  <std_smi>  (48) 
CC(=O)Nc1ccc2nc(C)cc(O)c2c1

>  <enum_smi>  (48) 
C=C(O)Nc1ccc2c(c1)C(=O)CC(C)=N2

>  <enum_code>  (48) 
T

>  <parent_uuid>  (48) 
ea1addea-57d6-4931-9057-ca9db5b0445d

>  <o3da_score>  (48) 
86.444432168316681

>  <o3da_score_rel>  (48) 
0.34414784448180091

>  <o3da_align>  (48) 
0.34479648634433435

>  <RMSD>  (48) 
6.0446515842809484e-05

>  <CONVERGED>  (48) 
0

>  <ENERGY>  (48) 
-25.328947359995503

$$$$
c78e88cd-fb1e-45e2-8e77-a733e9787d9d
     RDKit          3D

 16 17  0  0  0  0  0  0  0  0999 V2000
   -3.6664   30.1676    4.3368 C   0  0  0  0  0  0  0  0  0  0  0  0
   -3.7487   29.0063    4.9884 C   0  0  0  0  0  0  0  0  0  0  0  0
   -3.1537   28.9205    6.2216 O   0  0  0  0  0  0  0  0  0  0  0  0
   -4.4737   27.9247    4.5608 N   0  0  0  0  0  0  0  0  0  0  0  0
   -4.1183   26.5589    4.6230 C   0  0  0  0  0  0  0  0  0  0  0  0
   -5.0942   25.6068    4.2954 C   0  0  0  0  0  0  0  0  0  0  0  0
   -4.8242   24.2359    4.3749 C   0  0  0  0  0  0  0  0  0  0  0  0
   -3.5758   23.7751    4.7929 C   0  0  0  0  0  0  0  0  0  0  0  0
   -2.6081   24.7193    5.1321 C   0  0  0  0  0  0  0  0  0  0  0  0
   -2.8714   26.0968    5.0556 C   0  0  0  0  0  0  0  0  0  0  0  0
   -1.2891   24.2416    5.5778 C   0  0  0  0  0  0  0  0  0  0  0  0
   -0.4122   25.0374    5.9049 O   0  0  0  0  0  0  0  0  0  0  0  0
   -1.0583   22.7632    5.6164 C   0  0  0  0  0  0  0  0  0  0  0  0
   -2.2326   21.9166    5.2218 C   0  0  0  0  0  0  0  0  0  0  0  0
   -2.0515   20.4211    5.2670 C   0  0  0  0  0  0  0  0  0  0  0  0
   -3.3786   22.3889    4.8470 N   0  0  0  0  0  0  0  0  0  0  0  0
  1  2  2  3
  2  3  1  0
  2  4  1  0
  4  5  1  0
  5  6  2  0
  6  7  1  0
  7  8  2  0
  8  9  1  0
  9 10  2  0
  9 11  1  0
 11 12  2  0
 11 13  1  0
 13 14  1  0
 14 15  1  0
 14 16  2  0
 10  5  1  0
 16  8  1  0
M  END
>  <Energy>  (49) 
-24.603399694246729

>  <Energy_Delta>  (49) 
0.72554766574520713

>  <std_smi>  (49) 
CC(=O)Nc1ccc2nc(C)cc(O)c2c1

>  <enum_smi>  (49) 
C=C(O)Nc1ccc2c(c1)C(=O)CC(C)=N2

>  <enum_code>  (49) 
T

>  <parent_uuid>  (49) 
ea1addea-57d6-4931-9057-ca9db5b0445d

>  <o3da_score>  (49) 
85.154838315426147

>  <o3da_score_rel>  (49) 
0.33901378398077164

>  <o3da_align>  (49) 
0.3832655310513402

>  <RMSD>  (49) 
6.7234884757279227e-05

>  <CONVERGED>  (49) 
0

>  <ENERGY>  (49) 
-24.603399694588926

$$$$
c78e88cd-fb1e-45e2-8e77-a733e9787d9d
     RDKit          3D

 16 17  0  0  0  0  0  0  0  0999 V2000
   -4.2328   30.1191    5.7145 C   0  0  0  0  0  0  0  0  0  0  0  0
   -3.8154   29.0473    5.0385 C   0  0  0  0  0  0  0  0  0  0  0  0
   -2.5620   29.0892    4.4822 O   0  0  0  0  0  0  0  0  0  0  0  0
   -4.5882   27.9475    4.7711 N   0  0  0  0  0  0  0  0  0  0  0  0
   -4.2066   26.5877    4.7998 C   0  0  0  0  0  0  0  0  0  0  0  0
   -5.1129   25.6367    4.3094 C   0  0  0  0  0  0  0  0  0  0  0  0
   -4.7850   24.2767    4.2694 C   0  0  0  0  0  0  0  0  0  0  0  0
   -3.5396   23.8273    4.7084 C   0  0  0  0  0  0  0  0  0  0  0  0
   -2.6316   24.7721    5.1838 C   0  0  0  0  0  0  0  0  0  0  0  0
   -2.9529   26.1387    5.2267 C   0  0  0  0  0  0  0  0  0  0  0  0
   -1.3137   24.3068    5.6456 C   0  0  0  0  0  0  0  0  0  0  0  0
   -0.4751   25.1059    6.0548 O   0  0  0  0  0  0  0  0  0  0  0  0
   -1.0365   22.8367    5.5989 C   0  0  0  0  0  0  0  0  0  0  0  0
   -2.1428   21.9891    5.0429 C   0  0  0  0  0  0  0  0  0  0  0  0
   -1.8984   20.5044    4.9572 C   0  0  0  0  0  0  0  0  0  0  0  0
   -3.2828   22.4516    4.6387 N   0  0  0  0  0  0  0  0  0  0  0  0
  1  2  2  3
  2  3  1  0
  2  4  1  0
  4  5  1  0
  5  6  2  0
  6  7  1  0
  7  8  2  0
  8  9  1  0
  9 10  2  0
  9 11  1  0
 11 12  2  0
 11 13  1  0
 13 14  1  0
 14 15  1  0
 14 16  2  0
 10  5  1  0
 16  8  1  0
M  END
>  <Energy>  (50) 
-24.603399692704048

>  <Energy_Delta>  (50) 
0.72554766728788778

>  <std_smi>  (50) 
CC(=O)Nc1ccc2nc(C)cc(O)c2c1

>  <enum_smi>  (50) 
C=C(O)Nc1ccc2c(c1)C(=O)CC(C)=N2

>  <enum_code>  (50) 
T

>  <parent_uuid>  (50) 
ea1addea-57d6-4931-9057-ca9db5b0445d

>  <o3da_score>  (50) 
82.78883231227411

>  <o3da_score_rel>  (50) 
0.32959437031130212

>  <o3da_align>  (50) 
0.13374826058701431

>  <RMSD>  (50) 
6.3351185823538371e-05

>  <CONVERGED>  (50) 
0

>  <ENERGY>  (50) 
-24.603399694625104

$$$$
c78e88cd-fb1e-45e2-8e77-a733e9787d9d
     RDKit          3D

 16 17  0  0  0  0  0  0  0  0999 V2000
   -2.7752   29.1914    4.0783 C   0  0  0  0  0  0  0  0  0  0  0  0
   -3.9405   29.0657    4.7156 C   0  0  0  0  0  0  0  0  0  0  0  0
   -4.5304   30.2170    5.1768 O   0  0  0  0  0  0  0  0  0  0  0  0
   -4.6748   27.9345    4.9520 N   0  0  0  0  0  0  0  0  0  0  0  0
   -4.2657   26.5893    4.8788 C   0  0  0  0  0  0  0  0  0  0  0  0
   -5.1773   25.6176    4.4443 C   0  0  0  0  0  0  0  0  0  0  0  0
   -4.8120   24.2683    4.3656 C   0  0  0  0  0  0  0  0  0  0  0  0
   -3.5308   23.8497    4.7264 C   0  0  0  0  0  0  0  0  0  0  0  0
   -2.6275   24.8128    5.1721 C   0  0  0  0  0  0  0  0  0  0  0  0
   -2.9865   26.1668    5.2543 C   0  0  0  0  0  0  0  0  0  0  0  0
   -1.2768   24.3806    5.5646 C   0  0  0  0  0  0  0  0  0  0  0  0
   -0.4472   25.1961    5.9604 O   0  0  0  0  0  0  0  0  0  0  0  0
   -0.9544   22.9224    5.4633 C   0  0  0  0  0  0  0  0  0  0  0  0
   -2.0645   22.0500    4.9546 C   0  0  0  0  0  0  0  0  0  0  0  0
   -1.7809   20.5750    4.8301 C   0  0  0  0  0  0  0  0  0  0  0  0
   -3.2383   22.4832    4.6210 N   0  0  0  0  0  0  0  0  0  0  0  0
  1  2  2  3
  2  3  1  0
  2  4  1  0
  4  5  1  0
  5  6  2  0
  6  7  1  0
  7  8  2  0
  8  9  1  0
  9 10  2  0
  9 11  1  0
 11 12  2  0
 11 13  1  0
 13 14  1  0
 14 15  1  0
 14 16  2  0
 10  5  1  0
 16  8  1  0
M  END
>  <Energy>  (51) 
-22.45732435923367

>  <Energy_Delta>  (51) 
2.8716230007582659

>  <std_smi>  (51) 
CC(=O)Nc1ccc2nc(C)cc(O)c2c1

>  <enum_smi>  (51) 
C=C(O)Nc1ccc2c(c1)C(=O)CC(C)=N2

>  <enum_code>  (51) 
T

>  <parent_uuid>  (51) 
ea1addea-57d6-4931-9057-ca9db5b0445d

>  <o3da_score>  (51) 
86.484430774191139

>  <o3da_score_rel>  (51) 
0.3443070847434197

>  <o3da_align>  (51) 
0.32518435080066388

>  <RMSD>  (51) 
0.14035407170252667

>  <CONVERGED>  (51) 
0

>  <ENERGY>  (51) 
-20.37627919285211

$$$$
c78e88cd-fb1e-45e2-8e77-a733e9787d9d
     RDKit          3D

 16 17  0  0  0  0  0  0  0  0999 V2000
   -7.9784   24.1704    4.0466 C   0  0  0  0  0  0  0  0  0  0  0  0
   -7.1144   23.4807    3.2999 C   0  0  0  0  0  0  0  0  0  0  0  0
   -7.6392   22.6270    2.3607 O   0  0  0  0  0  0  0  0  0  0  0  0
   -5.7464   23.4678    3.3566 N   0  0  0  0  0  0  0  0  0  0  0  0
   -4.8833   24.3910    3.9771 C   0  0  0  0  0  0  0  0  0  0  0  0
   -3.6941   23.9334    4.5605 C   0  0  0  0  0  0  0  0  0  0  0  0
   -2.8052   24.8205    5.1796 C   0  0  0  0  0  0  0  0  0  0  0  0
   -3.0735   26.1889    5.2263 C   0  0  0  0  0  0  0  0  0  0  0  0
   -4.2489   26.6473    4.6343 C   0  0  0  0  0  0  0  0  0  0  0  0
   -5.1441   25.7645    4.0113 C   0  0  0  0  0  0  0  0  0  0  0  0
   -4.5365   28.0901    4.6691 C   0  0  0  0  0  0  0  0  0  0  0  0
   -5.5625   28.5377    4.1625 O   0  0  0  0  0  0  0  0  0  0  0  0
   -3.5406   28.9835    5.3403 C   0  0  0  0  0  0  0  0  0  0  0  0
   -2.3418   28.2921    5.9209 C   0  0  0  0  0  0  0  0  0  0  0  0
   -1.3164   29.1534    6.6125 C   0  0  0  0  0  0  0  0  0  0  0  0
   -2.1373   27.0147    5.8633 N   0  0  0  0  0  0  0  0  0  0  0  0
  1  2  2  3
  2  3  1  0
  2  4  1  0
  4  5  1  0
  5  6  2  0
  6  7  1  0
  7  8  2  0
  8  9  1  0
  9 10  2  0
  9 11  1  0
 11 12  2  0
 11 13  1  0
 13 14  1  0
 14 15  1  0
 14 16  2  0
 10  5  1  0
 16  8  1  0
M  END
>  <Energy>  (52) 
-22.457324358683593

>  <Energy_Delta>  (52) 
2.8716230013083432

>  <std_smi>  (52) 
CC(=O)Nc1ccc2nc(C)cc(O)c2c1

>  <enum_smi>  (52) 
C=C(O)Nc1ccc2c(c1)C(=O)CC(C)=N2

>  <enum_code>  (52) 
T

>  <parent_uuid>  (52) 
ea1addea-57d6-4931-9057-ca9db5b0445d

>  <o3da_score>  (52) 
74.30318843529416

>  <o3da_score_rel>  (52) 
0.29581178910796135

>  <o3da_align>  (52) 
0.28283161845328386

>  <RMSD>  (52) 
0.14033932826854703

>  <CONVERGED>  (52) 
0

>  <ENERGY>  (52) 
-20.376279192851189

$$$$
c78e88cd-fb1e-45e2-8e77-a733e9787d9d
     RDKit          3D

 16 17  0  0  0  0  0  0  0  0999 V2000
   -3.5286   28.8845    6.6054 C   0  0  0  0  0  0  0  0  0  0  0  0
   -3.9940   28.9908    5.3595 C   0  0  0  0  0  0  0  0  0  0  0  0
   -4.1414   30.2575    4.8503 O   0  0  0  0  0  0  0  0  0  0  0  0
   -4.3932   27.9987    4.5041 N   0  0  0  0  0  0  0  0  0  0  0  0
   -4.1124   26.6201    4.5707 C   0  0  0  0  0  0  0  0  0  0  0  0
   -2.8829   26.1212    5.0163 C   0  0  0  0  0  0  0  0  0  0  0  0
   -2.6328   24.7437    5.0571 C   0  0  0  0  0  0  0  0  0  0  0  0
   -3.5995   23.8262    4.6451 C   0  0  0  0  0  0  0  0  0  0  0  0
   -4.8177   24.3218    4.1851 C   0  0  0  0  0  0  0  0  0  0  0  0
   -5.0759   25.7004    4.1408 C   0  0  0  0  0  0  0  0  0  0  0  0
   -5.8423   23.3654    3.7385 C   0  0  0  0  0  0  0  0  0  0  0  0
   -6.9255   23.7637    3.3161 O   0  0  0  0  0  0  0  0  0  0  0  0
   -5.5172   21.9065    3.8188 C   0  0  0  0  0  0  0  0  0  0  0  0
   -4.1481   21.5791    4.3397 C   0  0  0  0  0  0  0  0  0  0  0  0
   -3.7736   20.1219    4.4280 C   0  0  0  0  0  0  0  0  0  0  0  0
   -3.2795   22.4636    4.7142 N   0  0  0  0  0  0  0  0  0  0  0  0
  1  2  2  3
  2  3  1  0
  2  4  1  0
  4  5  1  0
  5  6  2  0
  6  7  1  0
  7  8  2  0
  8  9  1  0
  9 10  2  0
  9 11  1  0
 11 12  2  0
 11 13  1  0
 13 14  1  0
 14 15  1  0
 14 16  2  0
 10  5  1  0
 16  8  1  0
M  END
>  <Energy>  (53) 
-22.21759832902746

>  <Energy_Delta>  (53) 
3.111349030964476

>  <std_smi>  (53) 
CC(=O)Nc1ccc2nc(C)cc(O)c2c1

>  <enum_smi>  (53) 
C=C(O)Nc1ccc2c(c1)C(=O)CC(C)=N2

>  <enum_code>  (53) 
T

>  <parent_uuid>  (53) 
ea1addea-57d6-4931-9057-ca9db5b0445d

>  <o3da_score>  (53) 
81.865454360466643

>  <o3da_score_rel>  (53) 
0.32591826852214567

>  <o3da_align>  (53) 
0.19818367792058747

>  <RMSD>  (53) 
0.13426553456973181

>  <CONVERGED>  (53) 
0

>  <ENERGY>  (53) 
-20.759626626692128

$$$$
c78e88cd-fb1e-45e2-8e77-a733e9787d9d
     RDKit          3D

 16 17  0  0  0  0  0  0  0  0999 V2000
   -2.7334   29.1755    4.1271 C   0  0  0  0  0  0  0  0  0  0  0  0
   -3.9153   29.0680    4.7370 C   0  0  0  0  0  0  0  0  0  0  0  0
   -4.4840   30.2242    5.2120 O   0  0  0  0  0  0  0  0  0  0  0  0
   -4.6835   27.9511    4.9309 N   0  0  0  0  0  0  0  0  0  0  0  0
   -4.2984   26.5988    4.8483 C   0  0  0  0  0  0  0  0  0  0  0  0
   -3.0422   26.1451    5.2671 C   0  0  0  0  0  0  0  0  0  0  0  0
   -2.6972   24.7902    5.1830 C   0  0  0  0  0  0  0  0  0  0  0  0
   -3.5999   23.8492    4.6875 C   0  0  0  0  0  0  0  0  0  0  0  0
   -4.8569   24.2966    4.2861 C   0  0  0  0  0  0  0  0  0  0  0  0
   -5.2104   25.6522    4.3676 C   0  0  0  0  0  0  0  0  0  0  0  0
   -5.8218   23.3130    3.7708 C   0  0  0  0  0  0  0  0  0  0  0  0
   -6.9442   23.6667    3.4168 O   0  0  0  0  0  0  0  0  0  0  0  0
   -5.3870   21.8827    3.6950 C   0  0  0  0  0  0  0  0  0  0  0  0
   -3.9937   21.6062    4.1801 C   0  0  0  0  0  0  0  0  0  0  0  0
   -3.5172   20.1771    4.1319 C   0  0  0  0  0  0  0  0  0  0  0  0
   -3.1856   22.5115    4.6319 N   0  0  0  0  0  0  0  0  0  0  0  0
  1  2  2  3
  2  3  1  0
  2  4  1  0
  4  5  1  0
  5  6  2  0
  6  7  1  0
  7  8  2  0
  8  9  1  0
  9 10  2  0
  9 11  1  0
 11 12  2  0
 11 13  1  0
 13 14  1  0
 14 15  1  0
 14 16  2  0
 10  5  1  0
 16  8  1  0
M  END
>  <Energy>  (54) 
-22.217598328978831

>  <Energy_Delta>  (54) 
3.1113490310131056

>  <std_smi>  (54) 
CC(=O)Nc1ccc2nc(C)cc(O)c2c1

>  <enum_smi>  (54) 
C=C(O)Nc1ccc2c(c1)C(=O)CC(C)=N2

>  <enum_code>  (54) 
T

>  <parent_uuid>  (54) 
ea1addea-57d6-4931-9057-ca9db5b0445d

>  <o3da_score>  (54) 
86.270352186917307

>  <o3da_score_rel>  (54) 
0.34345480678274615

>  <o3da_align>  (54) 
0.33990685293429046

>  <RMSD>  (54) 
0.13427126001373627

>  <CONVERGED>  (54) 
0

>  <ENERGY>  (54) 
-20.759626626642465

$$$$
77c91b66-e0cc-48ce-b724-0f0ab04a5d14
     RDKit          3D

 16 17  0  0  0  0  0  0  0  0999 V2000
   -0.9507   31.6314    6.5291 C   0  0  0  0  0  0  0  0  0  0  0  0
   -1.4187   30.7632    5.6309 C   0  0  0  0  0  0  0  0  0  0  0  0
   -1.8489   31.2545    4.4238 O   0  0  0  0  0  0  0  0  0  0  0  0
   -1.4053   29.4021    5.7818 N   0  0  0  0  0  0  0  0  0  0  0  0
   -2.4081   28.4757    5.4119 C   0  0  0  0  0  0  0  0  0  0  0  0
   -3.6698   28.8518    4.9349 C   0  0  0  0  0  0  0  0  0  0  0  0
   -4.6085   27.8920    4.5407 C   0  0  0  0  0  0  0  0  0  0  0  0
   -4.2981   26.5329    4.6075 C   0  0  0  0  0  0  0  0  0  0  0  0
   -3.0285   26.1342    5.0730 C   0  0  0  0  0  0  0  0  0  0  0  0
   -2.0984   27.1079    5.4650 C   0  0  0  0  0  0  0  0  0  0  0  0
   -2.7320   24.6880    5.1226 C   0  0  0  0  0  0  0  0  0  0  0  0
   -1.4835   24.3275    5.5816 O   0  0  0  0  0  0  0  0  0  0  0  0
   -3.6603   23.7957    4.7329 C   0  0  0  0  0  0  0  0  0  0  0  0
   -4.9754   24.2093    4.2534 C   0  0  0  0  0  0  0  0  0  0  0  0
   -5.8737   23.2871    3.8795 C   0  0  0  0  0  0  0  0  0  0  0  0
   -5.2329   25.5616    4.2088 N   0  0  0  0  0  0  0  0  0  0  0  0
  1  2  2  3
  2  3  1  0
  2  4  1  0
  4  5  1  0
  5  6  2  0
  6  7  1  0
  7  8  2  0
  8  9  1  0
  9 10  2  0
  9 11  1  0
 11 12  1  0
 11 13  2  0
 13 14  1  0
 14 15  2  3
 14 16  1  0
 10  5  1  0
 16  8  1  0
M  END
>  <Energy>  (55) 
-36.715509755748833

>  <Energy_Delta>  (55) 
0

>  <std_smi>  (55) 
CC(=O)Nc1ccc2nc(C)cc(O)c2c1

>  <enum_smi>  (55) 
C=C(O)Nc1ccc2c(c1)C(O)=CC(=C)N2

>  <enum_code>  (55) 
T

>  <parent_uuid>  (55) 
ea1addea-57d6-4931-9057-ca9db5b0445d

>  <o3da_score>  (55) 
78.226025889457119

>  <o3da_score_rel>  (55) 
0.31142917498509903

>  <o3da_align>  (55) 
0.31192330986084016

>  <RMSD>  (55) 
7.1746960389949981e-05

>  <CONVERGED>  (55) 
0

>  <ENERGY>  (55) 
-36.71550975587374

$$$$
77c91b66-e0cc-48ce-b724-0f0ab04a5d14
     RDKit          3D

 16 17  0  0  0  0  0  0  0  0999 V2000
    0.3377   32.4915   -0.7980 C   0  0  0  0  0  0  0  0  0  0  0  0
    0.0421   32.0543    0.4272 C   0  0  0  0  0  0  0  0  0  0  0  0
    0.2991   32.8870    1.4874 O   0  0  0  0  0  0  0  0  0  0  0  0
   -0.4028   30.7922    0.7183 N   0  0  0  0  0  0  0  0  0  0  0  0
   -1.3925   30.4129    1.6548 C   0  0  0  0  0  0  0  0  0  0  0  0
   -2.1851   31.3300    2.3560 C   0  0  0  0  0  0  0  0  0  0  0  0
   -3.1192   30.9001    3.3050 C   0  0  0  0  0  0  0  0  0  0  0  0
   -3.2719   29.5400    3.5784 C   0  0  0  0  0  0  0  0  0  0  0  0
   -2.4744   28.6015    2.8922 C   0  0  0  0  0  0  0  0  0  0  0  0
   -1.5429   29.0477    1.9435 C   0  0  0  0  0  0  0  0  0  0  0  0
   -2.6575   27.1713    3.2128 C   0  0  0  0  0  0  0  0  0  0  0  0
   -1.8646   26.2768    2.5270 O   0  0  0  0  0  0  0  0  0  0  0  0
   -3.5647   26.7975    4.1333 C   0  0  0  0  0  0  0  0  0  0  0  0
   -4.3917   27.7697    4.8414 C   0  0  0  0  0  0  0  0  0  0  0  0
   -5.2879   27.3543    5.7477 C   0  0  0  0  0  0  0  0  0  0  0  0
   -4.2041   29.0990    4.5338 N   0  0  0  0  0  0  0  0  0  0  0  0
  1  2  2  3
  2  3  1  0
  2  4  1  0
  4  5  1  0
  5  6  2  0
  6  7  1  0
  7  8  2  0
  8  9  1  0
  9 10  2  0
  9 11  1  0
 11 12  1  0
 11 13  2  0
 13 14  1  0
 14 15  2  3
 14 16  1  0
 10  5  1  0
 16  8  1  0
M  END
>  <Energy>  (56) 
-36.715509755202298

>  <Energy_Delta>  (56) 
5.4653526149195386e-10

>  <std_smi>  (56) 
CC(=O)Nc1ccc2nc(C)cc(O)c2c1

>  <enum_smi>  (56) 
C=C(O)Nc1ccc2c(c1)C(O)=CC(=C)N2

>  <enum_code>  (56) 
T

>  <parent_uuid>  (56) 
ea1addea-57d6-4931-9057-ca9db5b0445d

>  <o3da_score>  (56) 
86.630426819673275

>  <o3da_score_rel>  (56) 
0.34488831621310784

>  <o3da_align>  (56) 
0.57043480099461163

>  <RMSD>  (56) 
7.0392858365990197e-05

>  <CONVERGED>  (56) 
0

>  <ENERGY>  (56) 
-36.715509755877193

$$$$
77c91b66-e0cc-48ce-b724-0f0ab04a5d14
     RDKit          3D

 16 17  0  0  0  0  0  0  0  0999 V2000
   -6.4165   29.5796    5.0372 C   0  0  0  0  0  0  0  0  0  0  0  0
   -5.7635   28.5892    4.4264 C   0  0  0  0  0  0  0  0  0  0  0  0
   -6.1297   28.2784    3.1408 O   0  0  0  0  0  0  0  0  0  0  0  0
   -4.6848   27.9293    4.9542 N   0  0  0  0  0  0  0  0  0  0  0  0
   -4.3688   26.5540    4.8621 C   0  0  0  0  0  0  0  0  0  0  0  0
   -3.0932   26.1424    5.2769 C   0  0  0  0  0  0  0  0  0  0  0  0
   -2.6922   24.8070    5.1735 C   0  0  0  0  0  0  0  0  0  0  0  0
   -3.5614   23.8528    4.6436 C   0  0  0  0  0  0  0  0  0  0  0  0
   -4.8440   24.2481    4.2096 C   0  0  0  0  0  0  0  0  0  0  0  0
   -5.2325   25.5927    4.3215 C   0  0  0  0  0  0  0  0  0  0  0  0
   -5.7335   23.2098    3.6491 C   0  0  0  0  0  0  0  0  0  0  0  0
   -6.9779   23.6237    3.2275 O   0  0  0  0  0  0  0  0  0  0  0  0
   -5.3147   21.9341    3.5673 C   0  0  0  0  0  0  0  0  0  0  0  0
   -3.9882   21.5266    4.0188 C   0  0  0  0  0  0  0  0  0  0  0  0
   -3.6132   20.2428    3.9266 C   0  0  0  0  0  0  0  0  0  0  0  0
   -3.1676   22.5080    4.5294 N   0  0  0  0  0  0  0  0  0  0  0  0
  1  2  2  3
  2  3  1  0
  2  4  1  0
  4  5  1  0
  5  6  2  0
  6  7  1  0
  7  8  2  0
  8  9  1  0
  9 10  2  0
  9 11  1  0
 11 12  1  0
 11 13  2  0
 13 14  1  0
 14 15  2  3
 14 16  1  0
 10  5  1  0
 16  8  1  0
M  END
>  <Energy>  (57) 
-36.015307145693093

>  <Energy_Delta>  (57) 
0.70020261005574014

>  <std_smi>  (57) 
CC(=O)Nc1ccc2nc(C)cc(O)c2c1

>  <enum_smi>  (57) 
C=C(O)Nc1ccc2c(c1)C(O)=CC(=C)N2

>  <enum_code>  (57) 
T

>  <parent_uuid>  (57) 
ea1addea-57d6-4931-9057-ca9db5b0445d

>  <o3da_score>  (57) 
81.925455160235146

>  <o3da_score_rel>  (57) 
0.32615714042389304

>  <o3da_align>  (57) 
0.22230738515231821

>  <RMSD>  (57) 
5.8681007385269279e-05

>  <CONVERGED>  (57) 
0

>  <ENERGY>  (57) 
-36.015307146656703

$$$$
77c91b66-e0cc-48ce-b724-0f0ab04a5d14
     RDKit          3D

 16 17  0  0  0  0  0  0  0  0999 V2000
   -4.2451   30.1876    5.4596 C   0  0  0  0  0  0  0  0  0  0  0  0
   -3.8726   29.0683    4.8361 C   0  0  0  0  0  0  0  0  0  0  0  0
   -2.6599   29.0669    4.1935 O   0  0  0  0  0  0  0  0  0  0  0  0
   -4.6599   27.9545    4.7043 N   0  0  0  0  0  0  0  0  0  0  0  0
   -4.2726   26.5959    4.7687 C   0  0  0  0  0  0  0  0  0  0  0  0
   -5.2046   25.6260    4.3696 C   0  0  0  0  0  0  0  0  0  0  0  0
   -4.8792   24.2663    4.3625 C   0  0  0  0  0  0  0  0  0  0  0  0
   -3.6057   23.8480    4.7498 C   0  0  0  0  0  0  0  0  0  0  0  0
   -2.6501   24.8081    5.1432 C   0  0  0  0  0  0  0  0  0  0  0  0
   -2.9927   26.1697    5.1464 C   0  0  0  0  0  0  0  0  0  0  0  0
   -1.3109   24.3265    5.5409 C   0  0  0  0  0  0  0  0  0  0  0  0
   -0.3951   25.2853    5.9148 O   0  0  0  0  0  0  0  0  0  0  0  0
   -1.0342   23.0102    5.5241 C   0  0  0  0  0  0  0  0  0  0  0  0
   -2.0248   22.0182    5.1189 C   0  0  0  0  0  0  0  0  0  0  0  0
   -1.7100   20.7151    5.1241 C   0  0  0  0  0  0  0  0  0  0  0  0
   -3.2648   22.4840    4.7415 N   0  0  0  0  0  0  0  0  0  0  0  0
  1  2  2  3
  2  3  1  0
  2  4  1  0
  4  5  1  0
  5  6  2  0
  6  7  1  0
  7  8  2  0
  8  9  1  0
  9 10  2  0
  9 11  1  0
 11 12  1  0
 11 13  2  0
 13 14  1  0
 14 15  2  3
 14 16  1  0
 10  5  1  0
 16  8  1  0
M  END
>  <Energy>  (58) 
-34.162422436385704

>  <Energy_Delta>  (58) 
2.5530873193631294

>  <std_smi>  (58) 
CC(=O)Nc1ccc2nc(C)cc(O)c2c1

>  <enum_smi>  (58) 
C=C(O)Nc1ccc2c(c1)C(O)=CC(=C)N2

>  <enum_code>  (58) 
T

>  <parent_uuid>  (58) 
ea1addea-57d6-4931-9057-ca9db5b0445d

>  <o3da_score>  (58) 
87.702971057678056

>  <o3da_score_rel>  (58) 
0.34915827066086236

>  <o3da_align>  (58) 
0.30452364490267692

>  <RMSD>  (58) 
0.06309080241569083

>  <CONVERGED>  (58) 
0

>  <ENERGY>  (58) 
-36.015307146655566

$$$$
77c91b66-e0cc-48ce-b724-0f0ab04a5d14
     RDKit          3D

 16 17  0  0  0  0  0  0  0  0999 V2000
   -3.4869   28.9284    6.5555 C   0  0  0  0  0  0  0  0  0  0  0  0
   -3.9983   29.0022    5.3254 C   0  0  0  0  0  0  0  0  0  0  0  0
   -4.1851   30.2555    4.7957 O   0  0  0  0  0  0  0  0  0  0  0  0
   -4.4085   27.9877    4.5024 N   0  0  0  0  0  0  0  0  0  0  0  0
   -4.1162   26.6111    4.5982 C   0  0  0  0  0  0  0  0  0  0  0  0
   -5.0974   25.6763    4.2374 C   0  0  0  0  0  0  0  0  0  0  0  0
   -4.8490   24.3018    4.3105 C   0  0  0  0  0  0  0  0  0  0  0  0
   -3.6069   23.8338    4.7421 C   0  0  0  0  0  0  0  0  0  0  0  0
   -2.6005   24.7580    5.0908 C   0  0  0  0  0  0  0  0  0  0  0  0
   -2.8651   26.1337    5.0113 C   0  0  0  0  0  0  0  0  0  0  0  0
   -1.2930   24.2249    5.5259 C   0  0  0  0  0  0  0  0  0  0  0  0
   -0.3272   25.1494    5.8594 O   0  0  0  0  0  0  0  0  0  0  0  0
   -1.0922   22.8961    5.5848 C   0  0  0  0  0  0  0  0  0  0  0  0
   -2.1360   21.9407    5.2279 C   0  0  0  0  0  0  0  0  0  0  0  0
   -1.8982   20.6241    5.3140 C   0  0  0  0  0  0  0  0  0  0  0  0
   -3.3439   22.4542    4.8103 N   0  0  0  0  0  0  0  0  0  0  0  0
  1  2  2  3
  2  3  1  0
  2  4  1  0
  4  5  1  0
  5  6  2  0
  6  7  1  0
  7  8  2  0
  8  9  1  0
  9 10  2  0
  9 11  1  0
 11 12  1  0
 11 13  2  0
 13 14  1  0
 14 15  2  3
 14 16  1  0
 10  5  1  0
 16  8  1  0
M  END
>  <Energy>  (59) 
-32.721997976392174

>  <Energy_Delta>  (59) 
3.993511779356659

>  <std_smi>  (59) 
CC(=O)Nc1ccc2nc(C)cc(O)c2c1

>  <enum_smi>  (59) 
C=C(O)Nc1ccc2c(c1)C(O)=CC(=C)N2

>  <enum_code>  (59) 
T

>  <parent_uuid>  (59) 
ea1addea-57d6-4931-9057-ca9db5b0445d

>  <o3da_score>  (59) 
82.410556056542049

>  <o3da_score_rel>  (59) 
0.32808839757525182

>  <o3da_align>  (59) 
0.18692583480080391

>  <RMSD>  (59) 
0.14275314641167899

>  <CONVERGED>  (59) 
0

>  <ENERGY>  (59) 
-31.110816857469199

$$$$
77c91b66-e0cc-48ce-b724-0f0ab04a5d14
     RDKit          3D

 16 17  0  0  0  0  0  0  0  0999 V2000
   -2.7382   30.8454    7.6736 C   0  0  0  0  0  0  0  0  0  0  0  0
   -1.6483   30.4703    7.0016 C   0  0  0  0  0  0  0  0  0  0  0  0
   -0.5583   31.3038    7.0539 O   0  0  0  0  0  0  0  0  0  0  0  0
   -1.4376   29.3286    6.2755 N   0  0  0  0  0  0  0  0  0  0  0  0
   -2.3974   28.4255    5.7708 C   0  0  0  0  0  0  0  0  0  0  0  0
   -3.6317   28.8495    5.2626 C   0  0  0  0  0  0  0  0  0  0  0  0
   -4.5569   27.9338    4.7506 C   0  0  0  0  0  0  0  0  0  0  0  0
   -4.2598   26.5703    4.7308 C   0  0  0  0  0  0  0  0  0  0  0  0
   -3.0130   26.1253    5.2166 C   0  0  0  0  0  0  0  0  0  0  0  0
   -2.0955   27.0562    5.7264 C   0  0  0  0  0  0  0  0  0  0  0  0
   -2.7266   24.6770    5.1644 C   0  0  0  0  0  0  0  0  0  0  0  0
   -1.4992   24.2709    5.6423 O   0  0  0  0  0  0  0  0  0  0  0  0
   -3.6432   23.8259    4.6690 C   0  0  0  0  0  0  0  0  0  0  0  0
   -4.9349   24.2871    4.1698 C   0  0  0  0  0  0  0  0  0  0  0  0
   -5.8261   23.4035    3.6983 C   0  0  0  0  0  0  0  0  0  0  0  0
   -5.1784   25.6421    4.2098 N   0  0  0  0  0  0  0  0  0  0  0  0
  1  2  2  3
  2  3  1  0
  2  4  1  0
  4  5  1  0
  5  6  2  0
  6  7  1  0
  7  8  2  0
  8  9  1  0
  9 10  2  0
  9 11  1  0
 11 12  1  0
 11 13  2  0
 13 14  1  0
 14 15  2  3
 14 16  1  0
 10  5  1  0
 16  8  1  0
M  END
>  <Energy>  (60) 
-31.837519410739535

>  <Energy_Delta>  (60) 
4.8779903450092981

>  <std_smi>  (60) 
CC(=O)Nc1ccc2nc(C)cc(O)c2c1

>  <enum_smi>  (60) 
C=C(O)Nc1ccc2c(c1)C(O)=CC(=C)N2

>  <enum_code>  (60) 
T

>  <parent_uuid>  (60) 
ea1addea-57d6-4931-9057-ca9db5b0445d

>  <o3da_score>  (60) 
74.353863891907295

>  <o3da_score_rel>  (60) 
0.29601353546367321

>  <o3da_align>  (60) 
0.12117348710139365

>  <RMSD>  (60) 
6.5569010531792786e-05

>  <CONVERGED>  (60) 
0

>  <ENERGY>  (60) 
-31.837519410778121

$$$$
77c91b66-e0cc-48ce-b724-0f0ab04a5d14
     RDKit          3D

 16 17  0  0  0  0  0  0  0  0999 V2000
   -7.0267   24.4932    1.8909 C   0  0  0  0  0  0  0  0  0  0  0  0
   -6.9089   23.5600    2.8371 C   0  0  0  0  0  0  0  0  0  0  0  0
   -7.8743   22.5841    2.8822 O   0  0  0  0  0  0  0  0  0  0  0  0
   -5.9228   23.4055    3.7746 N   0  0  0  0  0  0  0  0  0  0  0  0
   -4.9570   24.3452    4.1913 C   0  0  0  0  0  0  0  0  0  0  0  0
   -3.6678   23.9019    4.5199 C   0  0  0  0  0  0  0  0  0  0  0  0
   -2.6807   24.7976    4.9439 C   0  0  0  0  0  0  0  0  0  0  0  0
   -2.9672   26.1592    5.0537 C   0  0  0  0  0  0  0  0  0  0  0  0
   -4.2634   26.6222    4.7465 C   0  0  0  0  0  0  0  0  0  0  0  0
   -5.2427   25.7108    4.3232 C   0  0  0  0  0  0  0  0  0  0  0  0
   -4.5337   28.0675    4.8918 C   0  0  0  0  0  0  0  0  0  0  0  0
   -5.8082   28.4929    4.5866 O   0  0  0  0  0  0  0  0  0  0  0  0
   -3.5581   28.8984    5.3011 C   0  0  0  0  0  0  0  0  0  0  0  0
   -2.2159   28.4185    5.6143 C   0  0  0  0  0  0  0  0  0  0  0  0
   -1.2689   29.2830    6.0058 C   0  0  0  0  0  0  0  0  0  0  0  0
   -1.9848   27.0666    5.4879 N   0  0  0  0  0  0  0  0  0  0  0  0
  1  2  2  3
  2  3  1  0
  2  4  1  0
  4  5  1  0
  5  6  2  0
  6  7  1  0
  7  8  2  0
  8  9  1  0
  9 10  2  0
  9 11  1  0
 11 12  1  0
 11 13  2  0
 13 14  1  0
 14 15  2  3
 14 16  1  0
 10  5  1  0
 16  8  1  0
M  END
>  <Energy>  (61) 
-31.110816857354045

>  <Energy_Delta>  (61) 
5.6046928983947879

>  <std_smi>  (61) 
CC(=O)Nc1ccc2nc(C)cc(O)c2c1

>  <enum_smi>  (61) 
C=C(O)Nc1ccc2c(c1)C(O)=CC(=C)N2

>  <enum_code>  (61) 
T

>  <parent_uuid>  (61) 
ea1addea-57d6-4931-9057-ca9db5b0445d

>  <o3da_score>  (61) 
74.596374934693429

>  <o3da_score_rel>  (61) 
0.2969790071608599

>  <o3da_align>  (61) 
0.23928236331751718

>  <RMSD>  (61) 
6.1887878965442367e-05

>  <CONVERGED>  (61) 
0

>  <ENERGY>  (61) 
-31.110816857490406

$$$$
77c91b66-e0cc-48ce-b724-0f0ab04a5d14
     RDKit          3D

 16 17  0  0  0  0  0  0  0  0999 V2000
   -6.1180   28.3365    3.1651 C   0  0  0  0  0  0  0  0  0  0  0  0
   -5.7084   28.5560    4.4158 C   0  0  0  0  0  0  0  0  0  0  0  0
   -6.1644   29.6923    5.0375 O   0  0  0  0  0  0  0  0  0  0  0  0
   -4.8489   27.8136    5.1808 N   0  0  0  0  0  0  0  0  0  0  0  0
   -4.4415   26.4763    4.9877 C   0  0  0  0  0  0  0  0  0  0  0  0
   -5.3141   25.4869    4.5175 C   0  0  0  0  0  0  0  0  0  0  0  0
   -4.8885   24.1646    4.3537 C   0  0  0  0  0  0  0  0  0  0  0  0
   -3.5768   23.8042    4.6658 C   0  0  0  0  0  0  0  0  0  0  0  0
   -2.6891   24.7806    5.1625 C   0  0  0  0  0  0  0  0  0  0  0  0
   -3.1312   26.1025    5.3218 C   0  0  0  0  0  0  0  0  0  0  0  0
   -1.3135   24.3591    5.4980 C   0  0  0  0  0  0  0  0  0  0  0  0
   -0.4687   25.3332    5.9849 O   0  0  0  0  0  0  0  0  0  0  0  0
   -0.9391   23.0789    5.3228 C   0  0  0  0  0  0  0  0  0  0  0  0
   -1.8576   22.0696    4.8050 C   0  0  0  0  0  0  0  0  0  0  0  0
   -1.4393   20.8079    4.6312 C   0  0  0  0  0  0  0  0  0  0  0  0
   -3.1410   22.4760    4.5140 N   0  0  0  0  0  0  0  0  0  0  0  0
  1  2  2  3
  2  3  1  0
  2  4  1  0
  4  5  1  0
  5  6  2  0
  6  7  1  0
  7  8  2  0
  8  9  1  0
  9 10  2  0
  9 11  1  0
 11 12  1  0
 11 13  2  0
 13 14  1  0
 14 15  2  3
 14 16  1  0
 10  5  1  0
 16  8  1  0
M  END
>  <Energy>  (62) 
-30.43092161696471

>  <Energy_Delta>  (62) 
6.2845881387841231

>  <std_smi>  (62) 
CC(=O)Nc1ccc2nc(C)cc(O)c2c1

>  <enum_smi>  (62) 
C=C(O)Nc1ccc2c(c1)C(O)=CC(=C)N2

>  <enum_code>  (62) 
T

>  <parent_uuid>  (62) 
ea1addea-57d6-4931-9057-ca9db5b0445d

>  <o3da_score>  (62) 
81.902347345461266

>  <o3da_score_rel>  (62) 
0.32606514485580795

>  <o3da_align>  (62) 
0.2219994925781506

>  <RMSD>  (62) 
0.13106569546088317

>  <CONVERGED>  (62) 
0

>  <ENERGY>  (62) 
-31.837519410776267

$$$$
2e7fde43-2211-4933-87e3-34fb8790eb93
     RDKit          3D

 16 17  0  0  0  0  0  0  0  0999 V2000
   -3.6621   30.2316    4.7543 C   0  0  0  0  0  0  0  0  0  0  0  0
   -3.8369   29.0206    5.2862 C   0  0  0  0  0  0  0  0  0  0  0  0
   -3.3998   28.8144    6.5707 O   0  0  0  0  0  0  0  0  0  0  0  0
   -4.5106   27.9923    4.6789 N   0  0  0  0  0  0  0  0  0  0  0  0
   -4.1675   26.6219    4.6764 C   0  0  0  0  0  0  0  0  0  0  0  0
   -2.9649   26.1245    5.1736 C   0  0  0  0  0  0  0  0  0  0  0  0
   -2.7025   24.7498    5.1606 C   0  0  0  0  0  0  0  0  0  0  0  0
   -3.6199   23.8303    4.6773 C   0  0  0  0  0  0  0  0  0  0  0  0
   -3.2853   22.5285    4.6877 N   0  0  0  0  0  0  0  0  0  0  0  0
   -4.1669   21.6207    4.2087 C   0  0  0  0  0  0  0  0  0  0  0  0
   -3.7498   20.1811    4.2263 C   0  0  0  0  0  0  0  0  0  0  0  0
   -5.4120   21.9788    3.7239 C   0  0  0  0  0  0  0  0  0  0  0  0
   -5.7566   23.3224    3.7357 C   0  0  0  0  0  0  0  0  0  0  0  0
   -7.0146   23.6133    3.2782 O   0  0  0  0  0  0  0  0  0  0  0  0
   -4.8564   24.3023    4.1972 C   0  0  0  0  0  0  0  0  0  0  0  0
   -5.1078   25.6992    4.1964 C   0  0  0  0  0  0  0  0  0  0  0  0
  1  2  2  3
  2  3  1  0
  2  4  1  0
  4  5  1  0
  5  6  2  0
  6  7  1  0
  7  8  2  0
  8  9  1  0
  9 10  2  0
 10 11  1  0
 10 12  1  0
 12 13  2  0
 13 14  1  0
 13 15  1  0
 15 16  2  0
 16  5  1  0
 15  8  1  0
M  END
>  <Energy>  (63) 
-20.743564595159683

>  <Energy_Delta>  (63) 
0

>  <std_smi>  (63) 
CC(=O)Nc1ccc2nc(C)cc(O)c2c1

>  <enum_smi>  (63) 
C=C(O)Nc1ccc2nc(C)cc(O)c2c1

>  <enum_code>  (63) 
T

>  <parent_uuid>  (63) 
ea1addea-57d6-4931-9057-ca9db5b0445d

>  <o3da_score>  (63) 
82.825522785029875

>  <o3da_score_rel>  (63) 
0.32974044041431727

>  <o3da_align>  (63) 
0.17713024275674705

>  <RMSD>  (63) 
0.047366889838688614

>  <CONVERGED>  (63) 
0

>  <ENERGY>  (63) 
-19.489900383183482

$$$$
2e7fde43-2211-4933-87e3-34fb8790eb93
     RDKit          3D

 16 17  0  0  0  0  0  0  0  0999 V2000
   -4.1156   30.1105    5.8045 C   0  0  0  0  0  0  0  0  0  0  0  0
   -3.7527   29.0431    5.0912 C   0  0  0  0  0  0  0  0  0  0  0  0
   -2.5097   29.0520    4.5095 O   0  0  0  0  0  0  0  0  0  0  0  0
   -4.5688   27.9767    4.8136 N   0  0  0  0  0  0  0  0  0  0  0  0
   -4.2204   26.6078    4.7989 C   0  0  0  0  0  0  0  0  0  0  0  0
   -2.9925   26.1171    5.2375 C   0  0  0  0  0  0  0  0  0  0  0  0
   -2.7069   24.7486    5.1708 C   0  0  0  0  0  0  0  0  0  0  0  0
   -3.6107   23.8327    4.6561 C   0  0  0  0  0  0  0  0  0  0  0  0
   -3.2646   22.5340    4.6398 N   0  0  0  0  0  0  0  0  0  0  0  0
   -4.1417   21.6274    4.1502 C   0  0  0  0  0  0  0  0  0  0  0  0
   -3.7221   20.1885    4.1621 C   0  0  0  0  0  0  0  0  0  0  0  0
   -5.3784   21.9877    3.6461 C   0  0  0  0  0  0  0  0  0  0  0  0
   -5.7189   23.3324    3.6484 C   0  0  0  0  0  0  0  0  0  0  0  0
   -6.9393   23.6334    3.1039 O   0  0  0  0  0  0  0  0  0  0  0  0
   -4.8476   24.3046    4.1769 C   0  0  0  0  0  0  0  0  0  0  0  0
   -5.1374   25.6913    4.2649 C   0  0  0  0  0  0  0  0  0  0  0  0
  1  2  2  3
  2  3  1  0
  2  4  1  0
  4  5  1  0
  5  6  2  0
  6  7  1  0
  7  8  2  0
  8  9  1  0
  9 10  2  0
 10 11  1  0
 10 12  1  0
 12 13  2  0
 13 14  1  0
 13 15  1  0
 15 16  2  0
 16  5  1  0
 15  8  1  0
M  END
>  <Energy>  (64) 
-20.743564595098135

>  <Energy_Delta>  (64) 
6.1547211771539878e-11

>  <std_smi>  (64) 
CC(=O)Nc1ccc2nc(C)cc(O)c2c1

>  <enum_smi>  (64) 
C=C(O)Nc1ccc2nc(C)cc(O)c2c1

>  <enum_code>  (64) 
T

>  <parent_uuid>  (64) 
ea1addea-57d6-4931-9057-ca9db5b0445d

>  <o3da_score>  (64) 
83.616091769106077

>  <o3da_score_rel>  (64) 
0.33288781040633991

>  <o3da_align>  (64) 
0.11355446433679732

>  <RMSD>  (64) 
0.04737138562536277

>  <CONVERGED>  (64) 
0

>  <ENERGY>  (64) 
-19.48990038318404

$$$$
2e7fde43-2211-4933-87e3-34fb8790eb93
     RDKit          3D

 16 17  0  0  0  0  0  0  0  0999 V2000
    2.4873   37.9319    1.1562 C   0  0  0  0  0  0  0  0  0  0  0  0
    1.5561   37.0494    0.7912 C   0  0  0  0  0  0  0  0  0  0  0  0
    0.2457   37.3397    1.0782 O   0  0  0  0  0  0  0  0  0  0  0  0
    1.7976   35.9170    0.0592 N   0  0  0  0  0  0  0  0  0  0  0  0
    1.2283   34.6367    0.2360 C   0  0  0  0  0  0  0  0  0  0  0  0
    1.4462   33.6705   -0.7459 C   0  0  0  0  0  0  0  0  0  0  0  0
    0.8630   32.4038   -0.6432 C   0  0  0  0  0  0  0  0  0  0  0  0
    0.0483   32.0558    0.4221 C   0  0  0  0  0  0  0  0  0  0  0  0
   -0.4767   30.8190    0.4387 N   0  0  0  0  0  0  0  0  0  0  0  0
   -1.2799   30.4624    1.4670 C   0  0  0  0  0  0  0  0  0  0  0  0
   -1.8499   29.0763    1.4466 C   0  0  0  0  0  0  0  0  0  0  0  0
   -1.5771   31.3218    2.5090 C   0  0  0  0  0  0  0  0  0  0  0  0
   -1.0244   32.5947    2.4889 C   0  0  0  0  0  0  0  0  0  0  0  0
   -1.3509   33.3858    3.5587 O   0  0  0  0  0  0  0  0  0  0  0  0
   -0.1924   33.0108    1.4297 C   0  0  0  0  0  0  0  0  0  0  0  0
    0.3982   34.2977    1.3117 C   0  0  0  0  0  0  0  0  0  0  0  0
  1  2  2  3
  2  3  1  0
  2  4  1  0
  4  5  1  0
  5  6  2  0
  6  7  1  0
  7  8  2  0
  8  9  1  0
  9 10  2  0
 10 11  1  0
 10 12  1  0
 12 13  2  0
 13 14  1  0
 13 15  1  0
 15 16  2  0
 16  5  1  0
 15  8  1  0
M  END
>  <Energy>  (65) 
-20.430731148503035

>  <Energy_Delta>  (65) 
0.31283344665664714

>  <std_smi>  (65) 
CC(=O)Nc1ccc2nc(C)cc(O)c2c1

>  <enum_smi>  (65) 
C=C(O)Nc1ccc2nc(C)cc(O)c2c1

>  <enum_code>  (65) 
T

>  <parent_uuid>  (65) 
ea1addea-57d6-4931-9057-ca9db5b0445d

>  <o3da_score>  (65) 
78.514842756213056

>  <o3da_score_rel>  (65) 
0.31257899689555491

>  <o3da_align>  (65) 
0.084244854640849118

>  <RMSD>  (65) 
7.0838810104575668e-05

>  <CONVERGED>  (65) 
0

>  <ENERGY>  (65) 
-20.430731148686515

$$$$
2e7fde43-2211-4933-87e3-34fb8790eb93
     RDKit          3D

 16 17  0  0  0  0  0  0  0  0999 V2000
   -5.6288   23.5913    3.7020 C   0  0  0  0  0  0  0  0  0  0  0  0
   -4.6931   24.4967    3.9918 C   0  0  0  0  0  0  0  0  0  0  0  0
   -3.3790   24.1483    3.8030 O   0  0  0  0  0  0  0  0  0  0  0  0
   -4.9383   25.7184    4.5611 N   0  0  0  0  0  0  0  0  0  0  0  0
   -4.3321   26.9546    4.2470 C   0  0  0  0  0  0  0  0  0  0  0  0
   -4.5680   28.0434    5.0862 C   0  0  0  0  0  0  0  0  0  0  0  0
   -3.9513   29.2755    4.8480 C   0  0  0  0  0  0  0  0  0  0  0  0
   -3.0849   29.4683    3.7841 C   0  0  0  0  0  0  0  0  0  0  0  0
   -2.5306   30.6829    3.6323 N   0  0  0  0  0  0  0  0  0  0  0  0
   -1.6770   30.8892    2.6036 C   0  0  0  0  0  0  0  0  0  0  0  0
   -1.0758   32.2559    2.4713 C   0  0  0  0  0  0  0  0  0  0  0  0
   -1.3569   29.8972    1.6946 C   0  0  0  0  0  0  0  0  0  0  0  0
   -1.9397   28.6477    1.8532 C   0  0  0  0  0  0  0  0  0  0  0  0
   -1.5875   27.7193    0.9093 O   0  0  0  0  0  0  0  0  0  0  0  0
   -2.8248   28.3869    2.9190 C   0  0  0  0  0  0  0  0  0  0  0  0
   -3.4500   27.1369    3.1747 C   0  0  0  0  0  0  0  0  0  0  0  0
  1  2  2  3
  2  3  1  0
  2  4  1  0
  4  5  1  0
  5  6  2  0
  6  7  1  0
  7  8  2  0
  8  9  1  0
  9 10  2  0
 10 11  1  0
 10 12  1  0
 12 13  2  0
 13 14  1  0
 13 15  1  0
 15 16  2  0
 16  5  1  0
 15  8  1  0
M  END
>  <Energy>  (66) 
-20.430731137565957

>  <Energy_Delta>  (66) 
0.31283345759372594

>  <std_smi>  (66) 
CC(=O)Nc1ccc2nc(C)cc(O)c2c1

>  <enum_smi>  (66) 
C=C(O)Nc1ccc2nc(C)cc(O)c2c1

>  <enum_code>  (66) 
T

>  <parent_uuid>  (66) 
ea1addea-57d6-4931-9057-ca9db5b0445d

>  <o3da_score>  (66) 
89.31914076303083

>  <o3da_score_rel>  (66) 
0.35559247708066927

>  <o3da_align>  (66) 
0.4929574765843851

>  <RMSD>  (66) 
7.9314949191975297e-05

>  <CONVERGED>  (66) 
0

>  <ENERGY>  (66) 
-20.430731148683584

$$$$
2e7fde43-2211-4933-87e3-34fb8790eb93
     RDKit          3D

 16 17  0  0  0  0  0  0  0  0999 V2000
   -6.9737   26.0405    5.0945 C   0  0  0  0  0  0  0  0  0  0  0  0
   -5.8959   25.2791    4.8974 C   0  0  0  0  0  0  0  0  0  0  0  0
   -5.9951   23.9509    5.2312 O   0  0  0  0  0  0  0  0  0  0  0  0
   -4.6862   25.6293    4.3610 N   0  0  0  0  0  0  0  0  0  0  0  0
   -4.1451   26.9161    4.1861 C   0  0  0  0  0  0  0  0  0  0  0  0
   -4.3287   27.9398    5.1137 C   0  0  0  0  0  0  0  0  0  0  0  0
   -3.7592   29.2014    4.9095 C   0  0  0  0  0  0  0  0  0  0  0  0
   -3.0012   29.4908    3.7864 C   0  0  0  0  0  0  0  0  0  0  0  0
   -2.4749   30.7224    3.6704 N   0  0  0  0  0  0  0  0  0  0  0  0
   -1.7189   31.0132    2.5865 C   0  0  0  0  0  0  0  0  0  0  0  0
   -1.1400   32.3933    2.5019 C   0  0  0  0  0  0  0  0  0  0  0  0
   -1.4806   30.0956    1.5791 C   0  0  0  0  0  0  0  0  0  0  0  0
   -2.0453   28.8343    1.6975 C   0  0  0  0  0  0  0  0  0  0  0  0
   -1.8108   27.9800    0.6526 O   0  0  0  0  0  0  0  0  0  0  0  0
   -2.8124   28.4804    2.8241 C   0  0  0  0  0  0  0  0  0  0  0  0
   -3.3771   27.1971    3.0482 C   0  0  0  0  0  0  0  0  0  0  0  0
  1  2  2  3
  2  3  1  0
  2  4  1  0
  4  5  1  0
  5  6  2  0
  6  7  1  0
  7  8  2  0
  8  9  1  0
  9 10  2  0
 10 11  1  0
 10 12  1  0
 12 13  2  0
 13 14  1  0
 13 15  1  0
 15 16  2  0
 16  5  1  0
 15  8  1  0
M  END
>  <Energy>  (67) 
-17.271084293656834

>  <Energy_Delta>  (67) 
3.4724803015028485

>  <std_smi>  (67) 
CC(=O)Nc1ccc2nc(C)cc(O)c2c1

>  <enum_smi>  (67) 
C=C(O)Nc1ccc2nc(C)cc(O)c2c1

>  <enum_code>  (67) 
T

>  <parent_uuid>  (67) 
ea1addea-57d6-4931-9057-ca9db5b0445d

>  <o3da_score>  (67) 
71.204087222155209

>  <o3da_score_rel>  (67) 
0.28347381689182116

>  <o3da_align>  (67) 
0.39787031427158859

>  <RMSD>  (67) 
0.14935960365930018

>  <CONVERGED>  (67) 
0

>  <ENERGY>  (67) 
-14.570038087234156

$$$$
2e7fde43-2211-4933-87e3-34fb8790eb93
     RDKit          3D

 16 17  0  0  0  0  0  0  0  0999 V2000
   -2.8708   29.9023    6.6864 C   0  0  0  0  0  0  0  0  0  0  0  0
   -3.8571   29.3799    5.9549 C   0  0  0  0  0  0  0  0  0  0  0  0
   -5.0218   29.0588    6.6066 O   0  0  0  0  0  0  0  0  0  0  0  0
   -3.8643   29.0753    4.6194 N   0  0  0  0  0  0  0  0  0  0  0  0
   -2.9856   29.5370    3.6201 C   0  0  0  0  0  0  0  0  0  0  0  0
   -2.5910   28.6776    2.5959 C   0  0  0  0  0  0  0  0  0  0  0  0
   -1.7279   29.1207    1.5885 C   0  0  0  0  0  0  0  0  0  0  0  0
   -1.2387   30.4170    1.5575 C   0  0  0  0  0  0  0  0  0  0  0  0
   -0.4172   30.7582    0.5502 N   0  0  0  0  0  0  0  0  0  0  0  0
    0.0626   32.0217    0.4959 C   0  0  0  0  0  0  0  0  0  0  0  0
    0.9732   32.3638   -0.6444 C   0  0  0  0  0  0  0  0  0  0  0  0
   -0.2575   32.9784    1.4420 C   0  0  0  0  0  0  0  0  0  0  0  0
   -1.1020   32.6169    2.4824 C   0  0  0  0  0  0  0  0  0  0  0  0
   -1.3658   33.6114    3.3871 O   0  0  0  0  0  0  0  0  0  0  0  0
   -1.6286   31.3122    2.5733 C   0  0  0  0  0  0  0  0  0  0  0  0
   -2.5089   30.8537    3.5893 C   0  0  0  0  0  0  0  0  0  0  0  0
  1  2  2  3
  2  3  1  0
  2  4  1  0
  4  5  1  0
  5  6  2  0
  6  7  1  0
  7  8  2  0
  8  9  1  0
  9 10  2  0
 10 11  1  0
 10 12  1  0
 12 13  2  0
 13 14  1  0
 13 15  1  0
 15 16  2  0
 16  5  1  0
 15  8  1  0
M  END
>  <Energy>  (68) 
-17.20656057315184

>  <Energy_Delta>  (68) 
3.5370040220078423

>  <std_smi>  (68) 
CC(=O)Nc1ccc2nc(C)cc(O)c2c1

>  <enum_smi>  (68) 
C=C(O)Nc1ccc2nc(C)cc(O)c2c1

>  <enum_code>  (68) 
T

>  <parent_uuid>  (68) 
ea1addea-57d6-4931-9057-ca9db5b0445d

>  <o3da_score>  (68) 
98.770491006365972

>  <o3da_score_rel>  (68) 
0.39321967564162513

>  <o3da_align>  (68) 
0.16874026792911775

>  <RMSD>  (68) 
0.15369180138713665

>  <CONVERGED>  (68) 
0

>  <ENERGY>  (68) 
-15.554732969712255

$$$$
2e7fde43-2211-4933-87e3-34fb8790eb93
     RDKit          3D

 16 17  0  0  0  0  0  0  0  0999 V2000
   -5.1588   30.6680    5.2838 C   0  0  0  0  0  0  0  0  0  0  0  0
   -4.4992   29.5367    5.5406 C   0  0  0  0  0  0  0  0  0  0  0  0
   -4.8047   28.8813    6.7074 O   0  0  0  0  0  0  0  0  0  0  0  0
   -3.5626   28.8977    4.7719 N   0  0  0  0  0  0  0  0  0  0  0  0
   -2.8139   29.4243    3.7014 C   0  0  0  0  0  0  0  0  0  0  0  0
   -2.5307   28.6234    2.5962 C   0  0  0  0  0  0  0  0  0  0  0  0
   -1.7793   29.1246    1.5284 C   0  0  0  0  0  0  0  0  0  0  0  0
   -1.2822   30.4183    1.5229 C   0  0  0  0  0  0  0  0  0  0  0  0
   -0.5669   30.8156    0.4569 N   0  0  0  0  0  0  0  0  0  0  0  0
   -0.0639   32.0710    0.4369 C   0  0  0  0  0  0  0  0  0  0  0  0
    0.7306   32.4751   -0.7681 C   0  0  0  0  0  0  0  0  0  0  0  0
   -0.2607   32.9660    1.4728 C   0  0  0  0  0  0  0  0  0  0  0  0
   -1.0052   32.5502    2.5678 C   0  0  0  0  0  0  0  0  0  0  0  0
   -1.1683   33.4921    3.5492 O   0  0  0  0  0  0  0  0  0  0  0  0
   -1.5428   31.2484    2.6312 C   0  0  0  0  0  0  0  0  0  0  0  0
   -2.3029   30.7284    3.7125 C   0  0  0  0  0  0  0  0  0  0  0  0
  1  2  2  3
  2  3  1  0
  2  4  1  0
  4  5  1  0
  5  6  2  0
  6  7  1  0
  7  8  2  0
  8  9  1  0
  9 10  2  0
 10 11  1  0
 10 12  1  0
 12 13  2  0
 13 14  1  0
 13 15  1  0
 15 16  2  0
 16  5  1  0
 15  8  1  0
M  END
>  <Energy>  (69) 
-16.998295218939148

>  <Energy_Delta>  (69) 
3.7452693762205342

>  <std_smi>  (69) 
CC(=O)Nc1ccc2nc(C)cc(O)c2c1

>  <enum_smi>  (69) 
C=C(O)Nc1ccc2nc(C)cc(O)c2c1

>  <enum_code>  (69) 
T

>  <parent_uuid>  (69) 
ea1addea-57d6-4931-9057-ca9db5b0445d

>  <o3da_score>  (69) 
98.550297523180049

>  <o3da_score_rel>  (69) 
0.39234305339185638

>  <o3da_align>  (69) 
0.18456556173251643

>  <RMSD>  (69) 
0.1172969440107276

>  <CONVERGED>  (69) 
0

>  <ENERGY>  (69) 
-15.554732969712823

$$$$
2e7fde43-2211-4933-87e3-34fb8790eb93
     RDKit          3D

 16 17  0  0  0  0  0  0  0  0999 V2000
   -3.5630   28.8690    6.6277 C   0  0  0  0  0  0  0  0  0  0  0  0
   -3.9707   28.9904    5.3631 C   0  0  0  0  0  0  0  0  0  0  0  0
   -4.0869   30.2626    4.8597 O   0  0  0  0  0  0  0  0  0  0  0  0
   -4.3368   28.0079    4.4831 N   0  0  0  0  0  0  0  0  0  0  0  0
   -4.0733   26.6277    4.5518 C   0  0  0  0  0  0  0  0  0  0  0  0
   -2.8690   26.1165    5.0318 C   0  0  0  0  0  0  0  0  0  0  0  0
   -2.6408   24.7366    5.0681 C   0  0  0  0  0  0  0  0  0  0  0  0
   -3.5920   23.8246    4.6404 C   0  0  0  0  0  0  0  0  0  0  0  0
   -3.2911   22.5153    4.6925 N   0  0  0  0  0  0  0  0  0  0  0  0
   -4.2048   21.6147    4.2624 C   0  0  0  0  0  0  0  0  0  0  0  0
   -3.8249   20.1661    4.3251 C   0  0  0  0  0  0  0  0  0  0  0  0
   -5.4490   21.9880    3.7869 C   0  0  0  0  0  0  0  0  0  0  0  0
   -5.7582   23.3397    3.7567 C   0  0  0  0  0  0  0  0  0  0  0  0
   -7.0176   23.6495    3.3154 O   0  0  0  0  0  0  0  0  0  0  0  0
   -4.8248   24.3116    4.1653 C   0  0  0  0  0  0  0  0  0  0  0  0
   -5.0411   25.7140    4.1134 C   0  0  0  0  0  0  0  0  0  0  0  0
  1  2  2  3
  2  3  1  0
  2  4  1  0
  4  5  1  0
  5  6  2  0
  6  7  1  0
  7  8  2  0
  8  9  1  0
  9 10  2  0
 10 11  1  0
 10 12  1  0
 12 13  2  0
 13 14  1  0
 13 15  1  0
 15 16  2  0
 16  5  1  0
 15  8  1  0
M  END
>  <Energy>  (70) 
-16.788678755527208

>  <Energy_Delta>  (70) 
3.9548858396324746

>  <std_smi>  (70) 
CC(=O)Nc1ccc2nc(C)cc(O)c2c1

>  <enum_smi>  (70) 
C=C(O)Nc1ccc2nc(C)cc(O)c2c1

>  <enum_code>  (70) 
T

>  <parent_uuid>  (70) 
ea1addea-57d6-4931-9057-ca9db5b0445d

>  <o3da_score>  (70) 
82.373098132172984

>  <o3da_score_rel>  (70) 
0.3279392721358565

>  <o3da_align>  (70) 
0.20682511544333435

>  <RMSD>  (70) 
0.14628870670647565

>  <CONVERGED>  (70) 
0

>  <ENERGY>  (70) 
-14.570038087227298

$$$$
e7d68fc9-315f-42a1-acb1-ef107ee61d08
     RDKit          3D

 16 17  0  0  0  0  0  0  0  0999 V2000
   -4.0419   30.2346    5.0437 C   0  0  0  0  0  0  0  0  0  0  0  0
   -3.7220   28.9347    5.1140 C   0  0  0  0  0  0  0  0  0  0  0  0
   -2.4008   28.5341    5.5771 C   0  0  0  0  0  0  0  0  0  0  0  0
   -2.0230   27.2475    5.6314 C   0  0  0  0  0  0  0  0  0  0  0  0
   -0.7898   26.9055    6.1458 O   0  0  0  0  0  0  0  0  0  0  0  0
   -2.9416   26.1804    5.1732 C   0  0  0  0  0  0  0  0  0  0  0  0
   -2.5804   24.8279    5.1034 C   0  0  0  0  0  0  0  0  0  0  0  0
   -3.4949   23.8664    4.6617 C   0  0  0  0  0  0  0  0  0  0  0  0
   -3.1268   22.5171    4.6137 N   0  0  0  0  0  0  0  0  0  0  0  0
   -2.6073   22.0469    3.5288 C   0  0  0  0  0  0  0  0  0  0  0  0
   -2.3325   22.7911    2.2531 C   0  0  0  0  0  0  0  0  0  0  0  0
   -2.2574   20.7471    3.5109 O   0  0  0  0  0  0  0  0  0  0  0  0
   -4.7908   24.2537    4.3167 C   0  0  0  0  0  0  0  0  0  0  0  0
   -5.1607   25.5987    4.3563 C   0  0  0  0  0  0  0  0  0  0  0  0
   -4.2390   26.5690    4.7619 C   0  0  0  0  0  0  0  0  0  0  0  0
   -4.6017   27.9285    4.7794 N   0  0  0  0  0  0  0  0  0  0  0  0
  1  2  2  3
  2  3  1  0
  3  4  2  0
  4  5  1  0
  4  6  1  0
  6  7  2  0
  7  8  1  0
  8  9  1  0
  9 10  2  3
 10 11  1  0
 10 12  1  0
  8 13  2  0
 13 14  1  0
 14 15  2  0
 15 16  1  0
 16  2  1  0
 15  6  1  0
M  END
>  <Energy>  (71) 
-21.77625374526508

>  <Energy_Delta>  (71) 
0

>  <std_smi>  (71) 
CC(=O)Nc1ccc2nc(C)cc(O)c2c1

>  <enum_smi>  (71) 
C=C1C=C(O)c2cc(N=C(C)O)ccc2N1

>  <enum_code>  (71) 
T

>  <parent_uuid>  (71) 
ea1addea-57d6-4931-9057-ca9db5b0445d

>  <o3da_score>  (71) 
77.451263569087928

>  <o3da_score_rel>  (71) 
0.30834473361793718

>  <o3da_align>  (71) 
0.13724930006407426

>  <RMSD>  (71) 
0.10474903521161345

>  <CONVERGED>  (71) 
0

>  <ENERGY>  (71) 
-10.998242577130114

$$$$
e7d68fc9-315f-42a1-acb1-ef107ee61d08
     RDKit          3D

 16 17  0  0  0  0  0  0  0  0999 V2000
   -5.8179   23.4205    3.7025 C   0  0  0  0  0  0  0  0  0  0  0  0
   -4.8907   24.2645    4.1765 C   0  0  0  0  0  0  0  0  0  0  0  0
   -5.1892   25.6853    4.2895 C   0  0  0  0  0  0  0  0  0  0  0  0
   -4.3061   26.5629    4.7904 C   0  0  0  0  0  0  0  0  0  0  0  0
   -4.5996   27.9104    4.8116 O   0  0  0  0  0  0  0  0  0  0  0  0
   -2.9931   26.0962    5.2915 C   0  0  0  0  0  0  0  0  0  0  0  0
   -2.0639   26.9360    5.9207 C   0  0  0  0  0  0  0  0  0  0  0  0
   -0.8391   26.4341    6.3722 C   0  0  0  0  0  0  0  0  0  0  0  0
    0.0870   27.2873    6.9830 N   0  0  0  0  0  0  0  0  0  0  0  0
    0.0491   27.4394    8.2649 C   0  0  0  0  0  0  0  0  0  0  0  0
   -0.9016   26.7927    9.2316 C   0  0  0  0  0  0  0  0  0  0  0  0
    0.9478   28.2697    8.8266 O   0  0  0  0  0  0  0  0  0  0  0  0
   -0.5259   25.0896    6.1659 C   0  0  0  0  0  0  0  0  0  0  0  0
   -1.4486   24.2333    5.5636 C   0  0  0  0  0  0  0  0  0  0  0  0
   -2.6898   24.7217    5.1434 C   0  0  0  0  0  0  0  0  0  0  0  0
   -3.6316   23.8555    4.5580 N   0  0  0  0  0  0  0  0  0  0  0  0
  1  2  2  3
  2  3  1  0
  3  4  2  0
  4  5  1  0
  4  6  1  0
  6  7  2  0
  7  8  1  0
  8  9  1  0
  9 10  2  3
 10 11  1  0
 10 12  1  0
  8 13  2  0
 13 14  1  0
 14 15  2  0
 15 16  1  0
 16  2  1  0
 15  6  1  0
M  END
>  <Energy>  (72) 
-19.674989718886899

>  <Energy_Delta>  (72) 
2.1012640263781819

>  <std_smi>  (72) 
CC(=O)Nc1ccc2nc(C)cc(O)c2c1

>  <enum_smi>  (72) 
C=C1C=C(O)c2cc(N=C(C)O)ccc2N1

>  <enum_code>  (72) 
T

>  <parent_uuid>  (72) 
ea1addea-57d6-4931-9057-ca9db5b0445d

>  <o3da_score>  (72) 
75.279083624177389

>  <o3da_score_rel>  (72) 
0.29969696964845449

>  <o3da_align>  (72) 
0.085267327659402078

>  <RMSD>  (72) 
0.012149534627487159

>  <CONVERGED>  (72) 
0

>  <ENERGY>  (72) 
-10.998242577132645

$$$$
e7d68fc9-315f-42a1-acb1-ef107ee61d08
     RDKit          3D

 16 17  0  0  0  0  0  0  0  0999 V2000
    0.5271   32.6117   -0.7434 C   0  0  0  0  0  0  0  0  0  0  0  0
   -0.0934   32.1328    0.3441 C   0  0  0  0  0  0  0  0  0  0  0  0
   -0.3377   33.0031    1.4854 C   0  0  0  0  0  0  0  0  0  0  0  0
   -0.9995   32.5840    2.5751 C   0  0  0  0  0  0  0  0  0  0  0  0
   -1.1442   33.4204    3.6628 O   0  0  0  0  0  0  0  0  0  0  0  0
   -1.5463   31.2081    2.6326 C   0  0  0  0  0  0  0  0  0  0  0  0
   -2.3337   30.7303    3.6898 C   0  0  0  0  0  0  0  0  0  0  0  0
   -2.8113   29.4154    3.6892 C   0  0  0  0  0  0  0  0  0  0  0  0
   -3.5666   28.9420    4.7714 N   0  0  0  0  0  0  0  0  0  0  0  0
   -4.8527   29.0329    4.7020 C   0  0  0  0  0  0  0  0  0  0  0  0
   -5.7419   28.5560    5.8047 C   0  0  0  0  0  0  0  0  0  0  0  0
   -5.5055   29.5593    3.6475 O   0  0  0  0  0  0  0  0  0  0  0  0
   -2.4827   28.5634    2.6334 C   0  0  0  0  0  0  0  0  0  0  0  0
   -1.7225   29.0285    1.5594 C   0  0  0  0  0  0  0  0  0  0  0  0
   -1.2701   30.3518    1.5397 C   0  0  0  0  0  0  0  0  0  0  0  0
   -0.5111   30.8242    0.4519 N   0  0  0  0  0  0  0  0  0  0  0  0
  1  2  2  3
  2  3  1  0
  3  4  2  0
  4  5  1  0
  4  6  1  0
  6  7  2  0
  7  8  1  0
  8  9  1  0
  9 10  2  3
 10 11  1  0
 10 12  1  0
  8 13  2  0
 13 14  1  0
 14 15  2  0
 15 16  1  0
 16  2  1  0
 15  6  1  0
M  END
>  <Energy>  (73) 
-18.756718226296456

>  <Energy_Delta>  (73) 
3.0195355189686239

>  <std_smi>  (73) 
CC(=O)Nc1ccc2nc(C)cc(O)c2c1

>  <enum_smi>  (73) 
C=C1C=C(O)c2cc(N=C(C)O)ccc2N1

>  <enum_code>  (73) 
T

>  <parent_uuid>  (73) 
ea1addea-57d6-4931-9057-ca9db5b0445d

>  <o3da_score>  (73) 
101.78023208761516

>  <o3da_score_rel>  (73) 
0.40520189218905328

>  <o3da_align>  (73) 
0.36665186687806645

>  <RMSD>  (73) 
0.12854811645153874

>  <CONVERGED>  (73) 
0

>  <ENERGY>  (73) 
-12.177015351266485

$$$$
e7d68fc9-315f-42a1-acb1-ef107ee61d08
     RDKit          3D

 16 17  0  0  0  0  0  0  0  0999 V2000
   -4.0515   30.2299    5.0323 C   0  0  0  0  0  0  0  0  0  0  0  0
   -3.7282   28.9316    5.1145 C   0  0  0  0  0  0  0  0  0  0  0  0
   -2.4056   28.5386    5.5793 C   0  0  0  0  0  0  0  0  0  0  0  0
   -2.0182   27.2548    5.6303 C   0  0  0  0  0  0  0  0  0  0  0  0
   -0.7822   26.9235    6.1464 O   0  0  0  0  0  0  0  0  0  0  0  0
   -2.9295   26.1817    5.1685 C   0  0  0  0  0  0  0  0  0  0  0  0
   -2.5620   24.8304    5.0957 C   0  0  0  0  0  0  0  0  0  0  0  0
   -3.4739   23.8631    4.6602 C   0  0  0  0  0  0  0  0  0  0  0  0
   -3.1023   22.5116    4.6281 N   0  0  0  0  0  0  0  0  0  0  0  0
   -2.6187   22.0393    3.5281 C   0  0  0  0  0  0  0  0  0  0  0  0
   -2.1945   20.6121    3.3966 C   0  0  0  0  0  0  0  0  0  0  0  0
   -2.4508   22.7758    2.4125 O   0  0  0  0  0  0  0  0  0  0  0  0
   -4.7710   24.2453    4.3137 C   0  0  0  0  0  0  0  0  0  0  0  0
   -5.1473   25.5886    4.3542 C   0  0  0  0  0  0  0  0  0  0  0  0
   -4.2292   26.5636    4.7577 C   0  0  0  0  0  0  0  0  0  0  0  0
   -4.6055   27.9200    4.7897 N   0  0  0  0  0  0  0  0  0  0  0  0
  1  2  2  3
  2  3  1  0
  3  4  2  0
  4  5  1  0
  4  6  1  0
  6  7  2  0
  7  8  1  0
  8  9  1  0
  9 10  2  3
 10 11  1  0
 10 12  1  0
  8 13  2  0
 13 14  1  0
 14 15  2  0
 15 16  1  0
 16  2  1  0
 15  6  1  0
M  END
>  <Energy>  (74) 
-18.75671822618996

>  <Energy_Delta>  (74) 
3.0195355190751201

>  <std_smi>  (74) 
CC(=O)Nc1ccc2nc(C)cc(O)c2c1

>  <enum_smi>  (74) 
C=C1C=C(O)c2cc(N=C(C)O)ccc2N1

>  <enum_code>  (74) 
T

>  <parent_uuid>  (74) 
ea1addea-57d6-4931-9057-ca9db5b0445d

>  <o3da_score>  (74) 
77.416786464769345

>  <o3da_score_rel>  (74) 
0.30820747525626374

>  <o3da_align>  (74) 
0.1402034590991697

>  <RMSD>  (74) 
0.12855015522045832

>  <CONVERGED>  (74) 
0

>  <ENERGY>  (74) 
-12.177015351260295

$$$$
1ea61cfc-51f2-45ea-b19c-f67bbf3b70b5
     RDKit          3D

 16 17  0  0  0  0  0  0  0  0999 V2000
   -2.0001   29.2068    1.3719 C   0  0  0  0  0  0  0  0  0  0  0  0
   -1.3666   30.3872    1.4156 C   0  0  0  0  0  0  0  0  0  0  0  0
   -1.6317   31.3166    2.5051 C   0  0  0  0  0  0  0  0  0  0  0  0
   -1.0610   32.5298    2.5605 C   0  0  0  0  0  0  0  0  0  0  0  0
   -1.2693   33.3512    3.6483 O   0  0  0  0  0  0  0  0  0  0  0  0
   -0.1661   32.9850    1.4720 C   0  0  0  0  0  0  0  0  0  0  0  0
    0.3695   34.2812    1.4034 C   0  0  0  0  0  0  0  0  0  0  0  0
    1.2248   34.6557    0.3558 C   0  0  0  0  0  0  0  0  0  0  0  0
    1.7148   35.9793    0.3666 N   0  0  0  0  0  0  0  0  0  0  0  0
    2.5620   36.5722   -0.5530 C   0  0  0  0  0  0  0  0  0  0  0  0
    2.8498   38.0140   -0.2145 C   0  0  0  0  0  0  0  0  0  0  0  0
    3.0405   36.0573   -1.5568 O   0  0  0  0  0  0  0  0  0  0  0  0
    1.5402   33.7185   -0.6282 C   0  0  0  0  0  0  0  0  0  0  0  0
    0.9918   32.4325   -0.5876 C   0  0  0  0  0  0  0  0  0  0  0  0
    0.1229   32.0642    0.4413 C   0  0  0  0  0  0  0  0  0  0  0  0
   -0.4409   30.7755    0.4711 N   0  0  0  0  0  0  0  0  0  0  0  0
  1  2  2  3
  2  3  1  0
  3  4  2  0
  4  5  1  0
  4  6  1  0
  6  7  2  0
  7  8  1  0
  8  9  1  0
  9 10  1  0
 10 11  1  0
 10 12  2  0
  8 13  2  0
 13 14  1  0
 14 15  2  0
 15 16  1  0
 16  2  1  0
 15  6  1  0
M  END
>  <Energy>  (75) 
-9.7643606251431301

>  <Energy_Delta>  (75) 
0

>  <std_smi>  (75) 
CC(=O)Nc1ccc2nc(C)cc(O)c2c1

>  <enum_smi>  (75) 
C=C1C=C(O)c2cc(NC(C)=O)ccc2N1

>  <enum_code>  (75) 
T

>  <parent_uuid>  (75) 
ea1addea-57d6-4931-9057-ca9db5b0445d

>  <o3da_score>  (75) 
74.954511528871848

>  <o3da_score_rel>  (75) 
0.29840480097805533

>  <o3da_align>  (75) 
0.099611146496382544

>  <RMSD>  (75) 
0.086718105443776394

>  <CONVERGED>  (75) 
0

>  <ENERGY>  (75) 
-6.084888250498306

$$$$
1ea61cfc-51f2-45ea-b19c-f67bbf3b70b5
     RDKit          3D

 16 17  0  0  0  0  0  0  0  0999 V2000
   -3.6288   20.2177    4.1320 C   0  0  0  0  0  0  0  0  0  0  0  0
   -3.9888   21.5089    4.1334 C   0  0  0  0  0  0  0  0  0  0  0  0
   -5.3066   21.8977    3.6537 C   0  0  0  0  0  0  0  0  0  0  0  0
   -5.7282   23.1719    3.6680 C   0  0  0  0  0  0  0  0  0  0  0  0
   -6.9669   23.4895    3.1482 O   0  0  0  0  0  0  0  0  0  0  0  0
   -4.8551   24.2400    4.2144 C   0  0  0  0  0  0  0  0  0  0  0  0
   -5.2521   25.5822    4.3405 C   0  0  0  0  0  0  0  0  0  0  0  0
   -4.3759   26.5496    4.8430 C   0  0  0  0  0  0  0  0  0  0  0  0
   -4.7072   27.9149    4.9788 N   0  0  0  0  0  0  0  0  0  0  0  0
   -5.8692   28.5435    4.5678 C   0  0  0  0  0  0  0  0  0  0  0  0
   -5.8741   30.0148    4.9013 C   0  0  0  0  0  0  0  0  0  0  0  0
   -6.8089   28.0342    3.9670 O   0  0  0  0  0  0  0  0  0  0  0  0
   -3.0942   26.1621    5.2481 C   0  0  0  0  0  0  0  0  0  0  0  0
   -2.6905   24.8286    5.1538 C   0  0  0  0  0  0  0  0  0  0  0  0
   -3.5643   23.8612    4.6515 C   0  0  0  0  0  0  0  0  0  0  0  0
   -3.1560   22.5177    4.5642 N   0  0  0  0  0  0  0  0  0  0  0  0
  1  2  2  3
  2  3  1  0
  3  4  2  0
  4  5  1  0
  4  6  1  0
  6  7  2  0
  7  8  1  0
  8  9  1  0
  9 10  1  0
 10 11  1  0
 10 12  2  0
  8 13  2  0
 13 14  1  0
 14 15  2  0
 15 16  1  0
 16  2  1  0
 15  6  1  0
M  END
>  <Energy>  (76) 
-7.3201011877383966

>  <Energy_Delta>  (76) 
2.4442594374047335

>  <std_smi>  (76) 
CC(=O)Nc1ccc2nc(C)cc(O)c2c1

>  <enum_smi>  (76) 
C=C1C=C(O)c2cc(NC(C)=O)ccc2N1

>  <enum_code>  (76) 
T

>  <parent_uuid>  (76) 
ea1addea-57d6-4931-9057-ca9db5b0445d

>  <o3da_score>  (76) 
83.252209273773857

>  <o3da_score_rel>  (76) 
0.33143914132179542

>  <o3da_align>  (76) 
0.21219899579898394

>  <RMSD>  (76) 
7.345614128133427e-05

>  <CONVERGED>  (76) 
0

>  <ENERGY>  (76) 
-7.3201011878724138

$$$$
e53ffe04-084f-4e83-abda-01244305c58f
     RDKit          3D

 16 17  0  0  0  0  0  0  0  0999 V2000
    0.5796   32.4365   -0.6713 C   0  0  0  0  0  0  0  0  0  0  0  0
    0.1777   31.9631    0.5171 C   0  0  0  0  0  0  0  0  0  0  0  0
    0.2981   32.8000    1.7669 C   0  0  0  0  0  0  0  0  0  0  0  0
   -0.9666   32.6969    2.5876 C   0  0  0  0  0  0  0  0  0  0  0  0
   -1.3343   33.5948    3.3428 O   0  0  0  0  0  0  0  0  0  0  0  0
   -1.6843   31.4028    2.5031 C   0  0  0  0  0  0  0  0  0  0  0  0
   -2.6735   31.1186    3.3562 C   0  0  0  0  0  0  0  0  0  0  0  0
   -3.3717   29.8097    3.3413 C   0  0  0  0  0  0  0  0  0  0  0  0
   -4.3488   29.6611    4.1656 N   0  0  0  0  0  0  0  0  0  0  0  0
   -5.0897   28.4129    4.1928 C   0  0  2  0  0  0  0  0  0  0  0  0
   -6.3104   28.6143    5.0832 C   0  0  0  0  0  0  0  0  0  0  0  0
   -4.3470   27.3222    4.7081 O   0  0  0  0  0  0  0  0  0  0  0  0
   -2.8430   28.8083    2.3761 C   0  0  0  0  0  0  0  0  0  0  0  0
   -1.8521   29.0963    1.5270 C   0  0  0  0  0  0  0  0  0  0  0  0
   -1.2279   30.4351    1.4851 C   0  0  0  0  0  0  0  0  0  0  0  0
   -0.3383   30.6902    0.5762 N   0  0  0  0  0  0  0  0  0  0  0  0
  1  2  2  3
  2  3  1  0
  3  4  1  0
  4  5  2  0
  4  6  1  0
  6  7  2  0
  7  8  1  0
  8  9  2  3
  9 10  1  0
 10 11  1  1
 10 12  1  0
  8 13  1  0
 13 14  2  0
 14 15  1  0
 15 16  2  0
 16  2  1  0
 15  6  1  0
M  END
>  <Energy>  (77) 
-25.681273749741273

>  <Energy_Delta>  (77) 
0

>  <std_smi>  (77) 
CC(=O)Nc1ccc2nc(C)cc(O)c2c1

>  <enum_smi>  (77) 
C=C1CC(=O)C2=CC(=NC(C)O)C=CC2=N1

>  <enum_code>  (77) 
T

>  <parent_uuid>  (77) 
ea1addea-57d6-4931-9057-ca9db5b0445d

>  <o3da_score>  (77) 
107.31119896436823

>  <o3da_score_rel>  (77) 
0.42722147495209978

>  <o3da_align>  (77) 
0.43111000361593788

>  <RMSD>  (77) 
7.6634422181048908e-05

>  <CONVERGED>  (77) 
0

>  <ENERGY>  (77) 
-25.681273750098235

$$$$
e53ffe04-084f-4e83-abda-01244305c58f
     RDKit          3D

 16 17  0  0  0  0  0  0  0  0999 V2000
   -1.9720   20.9255    5.7197 C   0  0  0  0  0  0  0  0  0  0  0  0
   -2.0594   22.1484    5.1766 C   0  0  0  0  0  0  0  0  0  0  0  0
   -0.8618   23.0654    5.1319 C   0  0  0  0  0  0  0  0  0  0  0  0
   -1.2637   24.4651    5.5356 C   0  0  0  0  0  0  0  0  0  0  0  0
   -0.4743   25.2495    6.0585 O   0  0  0  0  0  0  0  0  0  0  0  0
   -2.6432   24.8663    5.1718 C   0  0  0  0  0  0  0  0  0  0  0  0
   -3.0226   26.1453    5.2546 C   0  0  0  0  0  0  0  0  0  0  0  0
   -4.3742   26.5936    4.8369 C   0  0  0  0  0  0  0  0  0  0  0  0
   -4.6517   27.8363    5.0116 N   0  0  0  0  0  0  0  0  0  0  0  0
   -5.9463   28.3683    4.6207 C   0  0  1  0  0  0  0  0  0  0  0  0
   -5.9500   29.8510    4.9857 C   0  0  0  0  0  0  0  0  0  0  0  0
   -6.2575   28.2374    3.2399 O   0  0  0  0  0  0  0  0  0  0  0  0
   -5.2497   25.5407    4.2562 C   0  0  0  0  0  0  0  0  0  0  0  0
   -4.8657   24.2635    4.1728 C   0  0  0  0  0  0  0  0  0  0  0  0
   -3.5490   23.8135    4.6692 C   0  0  0  0  0  0  0  0  0  0  0  0
   -3.2643   22.5478    4.6487 N   0  0  0  0  0  0  0  0  0  0  0  0
  1  2  2  3
  2  3  1  0
  3  4  1  0
  4  5  2  0
  4  6  1  0
  6  7  2  0
  7  8  1  0
  8  9  2  3
  9 10  1  0
 10 11  1  6
 10 12  1  0
  8 13  1  0
 13 14  2  0
 14 15  1  0
 15 16  2  0
 16  2  1  0
 15  6  1  0
M  END
>  <Energy>  (78) 
-25.68127374948903

>  <Energy_Delta>  (78) 
2.5224267119483557e-10

>  <std_smi>  (78) 
CC(=O)Nc1ccc2nc(C)cc(O)c2c1

>  <enum_smi>  (78) 
C=C1CC(=O)C2=CC(=NC(C)O)C=CC2=N1

>  <enum_code>  (78) 
T

>  <parent_uuid>  (78) 
ea1addea-57d6-4931-9057-ca9db5b0445d

>  <o3da_score>  (78) 
85.760629833177873

>  <o3da_score_rel>  (78) 
0.3414255280319522

>  <o3da_align>  (78) 
0.16929190225766111

>  <RMSD>  (78) 
0.066705047207572102

>  <CONVERGED>  (78) 
0

>  <ENERGY>  (78) 
-22.327430848790925

$$$$
e53ffe04-084f-4e83-abda-01244305c58f
     RDKit          3D

 16 17  0  0  0  0  0  0  0  0999 V2000
   -1.9444   20.9224    5.6919 C   0  0  0  0  0  0  0  0  0  0  0  0
   -2.0444   22.1469    5.1549 C   0  0  0  0  0  0  0  0  0  0  0  0
   -0.8506   23.0679    5.0968 C   0  0  0  0  0  0  0  0  0  0  0  0
   -1.2510   24.4678    5.5006 C   0  0  0  0  0  0  0  0  0  0  0  0
   -0.4562   25.2587    6.0052 O   0  0  0  0  0  0  0  0  0  0  0  0
   -2.6370   24.8642    5.1564 C   0  0  0  0  0  0  0  0  0  0  0  0
   -3.0157   26.1437    5.2361 C   0  0  0  0  0  0  0  0  0  0  0  0
   -4.3707   26.5893    4.8283 C   0  0  0  0  0  0  0  0  0  0  0  0
   -4.6406   27.8393    4.9730 N   0  0  0  0  0  0  0  0  0  0  0  0
   -5.9372   28.3532    4.5701 C   0  0  2  0  0  0  0  0  0  0  0  0
   -5.8902   29.8730    4.6769 C   0  0  0  0  0  0  0  0  0  0  0  0
   -7.0087   27.8911    5.3731 O   0  0  0  0  0  0  0  0  0  0  0  0
   -5.2615   25.5293    4.2836 C   0  0  0  0  0  0  0  0  0  0  0  0
   -4.8779   24.2516    4.2053 C   0  0  0  0  0  0  0  0  0  0  0  0
   -3.5482   23.8075    4.6727 C   0  0  0  0  0  0  0  0  0  0  0  0
   -3.2590   22.5433    4.6474 N   0  0  0  0  0  0  0  0  0  0  0  0
  1  2  2  3
  2  3  1  0
  3  4  1  0
  4  5  2  0
  4  6  1  0
  6  7  2  0
  7  8  1  0
  8  9  2  3
  9 10  1  0
 10 11  1  1
 10 12  1  0
  8 13  1  0
 13 14  2  0
 14 15  1  0
 15 16  2  0
 16  2  1  0
 15  6  1  0
M  END
>  <Energy>  (79) 
-25.614785039887057

>  <Energy_Delta>  (79) 
0.066488709854215955

>  <std_smi>  (79) 
CC(=O)Nc1ccc2nc(C)cc(O)c2c1

>  <enum_smi>  (79) 
C=C1CC(=O)C2=CC(=NC(C)O)C=CC2=N1

>  <enum_code>  (79) 
T

>  <parent_uuid>  (79) 
ea1addea-57d6-4931-9057-ca9db5b0445d

>  <o3da_score>  (79) 
85.631384455942808

>  <o3da_score_rel>  (79) 
0.34091098340635873

>  <o3da_align>  (79) 
0.17786634990026989

>  <RMSD>  (79) 
6.5999327173113799e-05

>  <CONVERGED>  (79) 
0

>  <ENERGY>  (79) 
-25.614785040525838

$$$$
e53ffe04-084f-4e83-abda-01244305c58f
     RDKit          3D

 16 17  0  0  0  0  0  0  0  0999 V2000
   -2.0018   20.9917    5.9086 C   0  0  0  0  0  0  0  0  0  0  0  0
   -2.0972   22.1669    5.2701 C   0  0  0  0  0  0  0  0  0  0  0  0
   -0.8778   23.0233    5.0332 C   0  0  0  0  0  0  0  0  0  0  0  0
   -1.1908   24.4657    5.3556 C   0  0  0  0  0  0  0  0  0  0  0  0
   -0.3334   25.2511    5.7560 O   0  0  0  0  0  0  0  0  0  0  0  0
   -2.5800   24.8994    5.0708 C   0  0  0  0  0  0  0  0  0  0  0  0
   -2.8913   26.2006    5.0595 C   0  0  0  0  0  0  0  0  0  0  0  0
   -4.2591   26.6686    4.7177 C   0  0  0  0  0  0  0  0  0  0  0  0
   -4.7002   27.8764    4.7123 N   0  0  0  0  0  0  0  0  0  0  0  0
   -3.8163   28.9800    5.0511 C   0  0  2  0  0  0  0  0  0  0  0  0
   -4.6499   30.2575    5.0013 C   0  0  0  0  0  0  0  0  0  0  0  0
   -2.7012   29.1362    4.1849 O   0  0  0  0  0  0  0  0  0  0  0  0
   -5.2236   25.6061    4.3329 C   0  0  0  0  0  0  0  0  0  0  0  0
   -4.9082   24.3088    4.3396 C   0  0  0  0  0  0  0  0  0  0  0  0
   -3.5675   23.8469    4.7522 C   0  0  0  0  0  0  0  0  0  0  0  0
   -3.3321   22.5729    4.8229 N   0  0  0  0  0  0  0  0  0  0  0  0
  1  2  2  3
  2  3  1  0
  3  4  1  0
  4  5  2  0
  4  6  1  0
  6  7  2  0
  7  8  1  0
  8  9  2  3
  9 10  1  0
 10 11  1  6
 10 12  1  0
  8 13  1  0
 13 14  2  0
 14 15  1  0
 15 16  2  0
 16  2  1  0
 15  6  1  0
M  END
>  <Energy>  (80) 
-25.426006396518613

>  <Energy_Delta>  (80) 
0.25526735322265992

>  <std_smi>  (80) 
CC(=O)Nc1ccc2nc(C)cc(O)c2c1

>  <enum_smi>  (80) 
C=C1CC(=O)C2=CC(=NC(C)O)C=CC2=N1

>  <enum_code>  (80) 
T

>  <parent_uuid>  (80) 
ea1addea-57d6-4931-9057-ca9db5b0445d

>  <o3da_score>  (80) 
90.427654648441944

>  <o3da_score_rel>  (80) 
0.36000563192099

>  <o3da_align>  (80) 
0.31539120082358474

>  <RMSD>  (80) 
0.070451816653470306

>  <CONVERGED>  (80) 
0

>  <ENERGY>  (80) 
-22.649912860704852

$$$$
e53ffe04-084f-4e83-abda-01244305c58f
     RDKit          3D

 16 17  0  0  0  0  0  0  0  0999 V2000
   -2.1433   20.9329    5.9862 C   0  0  0  0  0  0  0  0  0  0  0  0
   -2.1675   22.1051    5.3356 C   0  0  0  0  0  0  0  0  0  0  0  0
   -0.9131   22.9266    5.1693 C   0  0  0  0  0  0  0  0  0  0  0  0
   -1.2033   24.3827    5.4496 C   0  0  0  0  0  0  0  0  0  0  0  0
   -0.3400   25.1604    5.8528 O   0  0  0  0  0  0  0  0  0  0  0  0
   -2.5705   24.8466    5.1104 C   0  0  0  0  0  0  0  0  0  0  0  0
   -2.8544   26.1549    5.1044 C   0  0  0  0  0  0  0  0  0  0  0  0
   -4.1934   26.6550    4.7005 C   0  0  0  0  0  0  0  0  0  0  0  0
   -4.6142   27.8694    4.6938 N   0  0  0  0  0  0  0  0  0  0  0  0
   -3.7816   28.9717    5.1394 C   0  0  1  0  0  0  0  0  0  0  0  0
   -2.9483   29.4886    3.9750 C   0  0  0  0  0  0  0  0  0  0  0  0
   -4.5752   30.0504    5.6012 O   0  0  0  0  0  0  0  0  0  0  0  0
   -5.1503   25.6190    4.2322 C   0  0  0  0  0  0  0  0  0  0  0  0
   -4.8629   24.3151    4.2393 C   0  0  0  0  0  0  0  0  0  0  0  0
   -3.5622   23.8189    4.7313 C   0  0  0  0  0  0  0  0  0  0  0  0
   -3.3611   22.5402    4.8109 N   0  0  0  0  0  0  0  0  0  0  0  0
  1  2  2  3
  2  3  1  0
  3  4  1  0
  4  5  2  0
  4  6  1  0
  6  7  2  0
  7  8  1  0
  8  9  2  3
  9 10  1  0
 10 11  1  6
 10 12  1  0
  8 13  1  0
 13 14  2  0
 14 15  1  0
 15 16  2  0
 16  2  1  0
 15  6  1  0
M  END
>  <Energy>  (81) 
-23.724320732642703

>  <Energy_Delta>  (81) 
1.9569530170985701

>  <std_smi>  (81) 
CC(=O)Nc1ccc2nc(C)cc(O)c2c1

>  <enum_smi>  (81) 
C=C1CC(=O)C2=CC(=NC(C)O)C=CC2=N1

>  <enum_code>  (81) 
T

>  <parent_uuid>  (81) 
ea1addea-57d6-4931-9057-ca9db5b0445d

>  <o3da_score>  (81) 
90.563422316328953

>  <o3da_score_rel>  (81) 
0.36054614273333074

>  <o3da_align>  (81) 
0.23805522397044238

>  <RMSD>  (81) 
6.587432425333928e-05

>  <CONVERGED>  (81) 
0

>  <ENERGY>  (81) 
-23.724320733117942

$$$$
e53ffe04-084f-4e83-abda-01244305c58f
     RDKit          3D

 16 17  0  0  0  0  0  0  0  0999 V2000
   -1.5469   21.0590    4.2503 C   0  0  0  0  0  0  0  0  0  0  0  0
   -2.0144   22.1399    4.8914 C   0  0  0  0  0  0  0  0  0  0  0  0
   -1.1605   22.8775    5.8928 C   0  0  0  0  0  0  0  0  0  0  0  0
   -1.2825   24.3686    5.6815 C   0  0  0  0  0  0  0  0  0  0  0  0
   -0.3835   25.1524    5.9813 O   0  0  0  0  0  0  0  0  0  0  0  0
   -2.5957   24.8447    5.1834 C   0  0  0  0  0  0  0  0  0  0  0  0
   -2.8861   26.1515    5.1977 C   0  0  0  0  0  0  0  0  0  0  0  0
   -4.2161   26.6539    4.7676 C   0  0  0  0  0  0  0  0  0  0  0  0
   -4.6140   27.8738    4.6930 N   0  0  0  0  0  0  0  0  0  0  0  0
   -3.7524   28.9862    5.0493 C   0  0  1  0  0  0  0  0  0  0  0  0
   -2.9036   29.3854    3.8503 C   0  0  0  0  0  0  0  0  0  0  0  0
   -4.5180   30.1195    5.4194 O   0  0  0  0  0  0  0  0  0  0  0  0
   -5.2041   25.6106    4.3891 C   0  0  0  0  0  0  0  0  0  0  0  0
   -4.9113   24.3079    4.3799 C   0  0  0  0  0  0  0  0  0  0  0  0
   -3.5626   23.8221    4.7335 C   0  0  0  0  0  0  0  0  0  0  0  0
   -3.2966   22.5575    4.6244 N   0  0  0  0  0  0  0  0  0  0  0  0
  1  2  2  3
  2  3  1  0
  3  4  1  0
  4  5  2  0
  4  6  1  0
  6  7  2  0
  7  8  1  0
  8  9  2  3
  9 10  1  0
 10 11  1  6
 10 12  1  0
  8 13  1  0
 13 14  2  0
 14 15  1  0
 15 16  2  0
 16  2  1  0
 15  6  1  0
M  END
>  <Energy>  (82) 
-23.695842951978786

>  <Energy_Delta>  (82) 
1.9854307977624863

>  <std_smi>  (82) 
CC(=O)Nc1ccc2nc(C)cc(O)c2c1

>  <enum_smi>  (82) 
C=C1CC(=O)C2=CC(=NC(C)O)C=CC2=N1

>  <enum_code>  (82) 
T

>  <parent_uuid>  (82) 
ea1addea-57d6-4931-9057-ca9db5b0445d

>  <o3da_score>  (82) 
91.308597475773581

>  <o3da_score_rel>  (82) 
0.36351279331395941

>  <o3da_align>  (82) 
0.19719296946886122

>  <RMSD>  (82) 
6.9161116317619339e-05

>  <CONVERGED>  (82) 
0

>  <ENERGY>  (82) 
-23.695842952454246

$$$$
e53ffe04-084f-4e83-abda-01244305c58f
     RDKit          3D

 16 17  0  0  0  0  0  0  0  0999 V2000
   -4.2196   20.4635    5.0719 C   0  0  0  0  0  0  0  0  0  0  0  0
   -4.2497   21.6512    4.4502 C   0  0  0  0  0  0  0  0  0  0  0  0
   -5.3207   21.9686    3.4355 C   0  0  0  0  0  0  0  0  0  0  0  0
   -5.8536   23.3651    3.6578 C   0  0  0  0  0  0  0  0  0  0  0  0
   -6.9942   23.6922    3.3358 O   0  0  0  0  0  0  0  0  0  0  0  0
   -4.8815   24.3463    4.1955 C   0  0  0  0  0  0  0  0  0  0  0  0
   -5.1699   25.6515    4.2079 C   0  0  0  0  0  0  0  0  0  0  0  0
   -4.1976   26.6694    4.6785 C   0  0  0  0  0  0  0  0  0  0  0  0
   -4.6022   27.8891    4.6945 N   0  0  0  0  0  0  0  0  0  0  0  0
   -3.7524   28.9759    5.1423 C   0  0  1  0  0  0  0  0  0  0  0  0
   -2.9328   29.5011    3.9720 C   0  0  0  0  0  0  0  0  0  0  0  0
   -4.5256   30.0558    5.6341 O   0  0  0  0  0  0  0  0  0  0  0  0
   -2.8570   26.1496    5.0606 C   0  0  0  0  0  0  0  0  0  0  0  0
   -2.5729   24.8437    5.0439 C   0  0  0  0  0  0  0  0  0  0  0  0
   -3.5778   23.8312    4.6581 C   0  0  0  0  0  0  0  0  0  0  0  0
   -3.2750   22.5734    4.7495 N   0  0  0  0  0  0  0  0  0  0  0  0
  1  2  2  3
  2  3  1  0
  3  4  1  0
  4  5  2  0
  4  6  1  0
  6  7  2  0
  7  8  1  0
  8  9  2  3
  9 10  1  0
 10 11  1  6
 10 12  1  0
  8 13  1  0
 13 14  2  0
 14 15  1  0
 15 16  2  0
 16  2  1  0
 15  6  1  0
M  END
>  <Energy>  (83) 
-23.356889475203559

>  <Energy_Delta>  (83) 
2.3243842745377137

>  <std_smi>  (83) 
CC(=O)Nc1ccc2nc(C)cc(O)c2c1

>  <enum_smi>  (83) 
C=C1CC(=O)C2=CC(=NC(C)O)C=CC2=N1

>  <enum_code>  (83) 
T

>  <parent_uuid>  (83) 
ea1addea-57d6-4931-9057-ca9db5b0445d

>  <o3da_score>  (83) 
90.884346751547923

>  <o3da_score_rel>  (83) 
0.36182378953893529

>  <o3da_align>  (83) 
0.22244335217613181

>  <RMSD>  (83) 
8.0039783810619989e-05

>  <CONVERGED>  (83) 
0

>  <ENERGY>  (83) 
-23.356889475209488

$$$$
e53ffe04-084f-4e83-abda-01244305c58f
     RDKit          3D

 16 17  0  0  0  0  0  0  0  0999 V2000
   -1.3567   21.1952    4.0680 C   0  0  0  0  0  0  0  0  0  0  0  0
   -1.8978   22.2095    4.7582 C   0  0  0  0  0  0  0  0  0  0  0  0
   -1.1014   22.9452    5.8079 C   0  0  0  0  0  0  0  0  0  0  0  0
   -1.3166   24.4353    5.6776 C   0  0  0  0  0  0  0  0  0  0  0  0
   -0.4723   25.2550    6.0341 O   0  0  0  0  0  0  0  0  0  0  0  0
   -2.6518   24.8513    5.1871 C   0  0  0  0  0  0  0  0  0  0  0  0
   -3.0359   26.1293    5.2642 C   0  0  0  0  0  0  0  0  0  0  0  0
   -4.3904   26.5725    4.8493 C   0  0  0  0  0  0  0  0  0  0  0  0
   -4.6344   27.8316    4.9300 N   0  0  0  0  0  0  0  0  0  0  0  0
   -5.9234   28.3913    4.5708 C   0  0  2  0  0  0  0  0  0  0  0  0
   -5.9571   28.6867    3.0778 C   0  0  0  0  0  0  0  0  0  0  0  0
   -6.1523   29.6142    5.2480 O   0  0  0  0  0  0  0  0  0  0  0  0
   -5.3096   25.4935    4.3973 C   0  0  0  0  0  0  0  0  0  0  0  0
   -4.9209   24.2168    4.3234 C   0  0  0  0  0  0  0  0  0  0  0  0
   -3.5468   23.7975    4.6698 C   0  0  0  0  0  0  0  0  0  0  0  0
   -3.2012   22.5597    4.4960 N   0  0  0  0  0  0  0  0  0  0  0  0
  1  2  2  3
  2  3  1  0
  3  4  1  0
  4  5  2  0
  4  6  1  0
  6  7  2  0
  7  8  1  0
  8  9  2  3
  9 10  1  0
 10 11  1  6
 10 12  1  0
  8 13  1  0
 13 14  2  0
 14 15  1  0
 15 16  2  0
 16  2  1  0
 15  6  1  0
M  END
>  <Energy>  (84) 
-23.340104329439612

>  <Energy_Delta>  (84) 
2.3411694203016609

>  <std_smi>  (84) 
CC(=O)Nc1ccc2nc(C)cc(O)c2c1

>  <enum_smi>  (84) 
C=C1CC(=O)C2=CC(=NC(C)O)C=CC2=N1

>  <enum_code>  (84) 
T

>  <parent_uuid>  (84) 
ea1addea-57d6-4931-9057-ca9db5b0445d

>  <o3da_score>  (84) 
85.446689391514667

>  <o3da_score_rel>  (84) 
0.34017568551943861

>  <o3da_align>  (84) 
0.18678047006073056

>  <RMSD>  (84) 
5.7401965277206299e-05

>  <CONVERGED>  (84) 
0

>  <ENERGY>  (84) 
-23.340104329606795

$$$$
e53ffe04-084f-4e83-abda-01244305c58f
     RDKit          3D

 16 17  0  0  0  0  0  0  0  0999 V2000
   -2.0764   28.9569    7.0386 C   0  0  0  0  0  0  0  0  0  0  0  0
   -2.5956   28.2858    6.0004 C   0  0  0  0  0  0  0  0  0  0  0  0
   -3.5924   28.9394    5.0750 C   0  0  0  0  0  0  0  0  0  0  0  0
   -4.7289   27.9892    4.7763 C   0  0  0  0  0  0  0  0  0  0  0  0
   -5.8570   28.3839    4.4877 O   0  0  0  0  0  0  0  0  0  0  0  0
   -4.3742   26.5505    4.7527 C   0  0  0  0  0  0  0  0  0  0  0  0
   -5.2307   25.6476    4.2646 C   0  0  0  0  0  0  0  0  0  0  0  0
   -4.8845   24.2082    4.1589 C   0  0  0  0  0  0  0  0  0  0  0  0
   -5.8012   23.4265    3.7118 N   0  0  0  0  0  0  0  0  0  0  0  0
   -5.5854   22.0019    3.5448 C   0  0  1  0  0  0  0  0  0  0  0  0
   -5.8896   21.2799    4.8501 C   0  0  0  0  0  0  0  0  0  0  0  0
   -6.4501   21.4699    2.5571 O   0  0  0  0  0  0  0  0  0  0  0  0
   -3.5033   23.8466    4.5773 C   0  0  0  0  0  0  0  0  0  0  0  0
   -2.6503   24.7536    5.0635 C   0  0  0  0  0  0  0  0  0  0  0  0
   -3.0307   26.1715    5.2325 C   0  0  0  0  0  0  0  0  0  0  0  0
   -2.1917   26.9885    5.7898 N   0  0  0  0  0  0  0  0  0  0  0  0
  1  2  2  3
  2  3  1  0
  3  4  1  0
  4  5  2  0
  4  6  1  0
  6  7  2  0
  7  8  1  0
  8  9  2  3
  9 10  1  0
 10 11  1  1
 10 12  1  0
  8 13  1  0
 13 14  2  0
 14 15  1  0
 15 16  2  0
 16  2  1  0
 15  6  1  0
M  END
>  <Energy>  (85) 
-23.340104328646927

>  <Energy_Delta>  (85) 
2.3411694210943459

>  <std_smi>  (85) 
CC(=O)Nc1ccc2nc(C)cc(O)c2c1

>  <enum_smi>  (85) 
C=C1CC(=O)C2=CC(=NC(C)O)C=CC2=N1

>  <enum_code>  (85) 
T

>  <parent_uuid>  (85) 
ea1addea-57d6-4931-9057-ca9db5b0445d

>  <o3da_score>  (85) 
69.591506694777721

>  <o3da_score_rel>  (85) 
0.27705389951102666

>  <o3da_align>  (85) 
0.15346107219372479

>  <RMSD>  (85) 
7.0344390669555587e-05

>  <CONVERGED>  (85) 
0

>  <ENERGY>  (85) 
-23.34010432960325

$$$$
e53ffe04-084f-4e83-abda-01244305c58f
     RDKit          3D

 16 17  0  0  0  0  0  0  0  0999 V2000
   -1.2787   29.2356    4.7771 C   0  0  0  0  0  0  0  0  0  0  0  0
   -2.2758   28.3993    5.1001 C   0  0  0  0  0  0  0  0  0  0  0  0
   -3.6780   28.9116    5.3189 C   0  0  0  0  0  0  0  0  0  0  0  0
   -4.6781   28.0050    4.6394 C   0  0  0  0  0  0  0  0  0  0  0  0
   -5.7702   28.4117    4.2467 O   0  0  0  0  0  0  0  0  0  0  0  0
   -4.3035   26.5729    4.5695 C   0  0  0  0  0  0  0  0  0  0  0  0
   -5.2042   25.6522    4.2123 C   0  0  0  0  0  0  0  0  0  0  0  0
   -4.8885   24.2008    4.1956 C   0  0  0  0  0  0  0  0  0  0  0  0
   -5.8242   23.4199    3.7950 N   0  0  0  0  0  0  0  0  0  0  0  0
   -5.6849   21.9766    3.6967 C   0  0  2  0  0  0  0  0  0  0  0  0
   -5.9636   21.3338    5.0497 C   0  0  0  0  0  0  0  0  0  0  0  0
   -4.4587   21.4834    3.1774 O   0  0  0  0  0  0  0  0  0  0  0  0
   -3.5275   23.8405    4.6727 C   0  0  0  0  0  0  0  0  0  0  0  0
   -2.6291   24.7627    5.0310 C   0  0  0  0  0  0  0  0  0  0  0  0
   -2.9282   26.2075    4.9632 C   0  0  0  0  0  0  0  0  0  0  0  0
   -1.9913   27.0616    5.2387 N   0  0  0  0  0  0  0  0  0  0  0  0
  1  2  2  3
  2  3  1  0
  3  4  1  0
  4  5  2  0
  4  6  1  0
  6  7  2  0
  7  8  1  0
  8  9  2  3
  9 10  1  0
 10 11  1  1
 10 12  1  0
  8 13  1  0
 13 14  2  0
 14 15  1  0
 15 16  2  0
 16  2  1  0
 15  6  1  0
M  END
>  <Energy>  (86) 
-22.95255982564705

>  <Energy_Delta>  (86) 
2.7287139240942224

>  <std_smi>  (86) 
CC(=O)Nc1ccc2nc(C)cc(O)c2c1

>  <enum_smi>  (86) 
C=C1CC(=O)C2=CC(=NC(C)O)C=CC2=N1

>  <enum_code>  (86) 
T

>  <parent_uuid>  (86) 
ea1addea-57d6-4931-9057-ca9db5b0445d

>  <o3da_score>  (86) 
67.844117099115536

>  <o3da_score_rel>  (86) 
0.27009728764218877

>  <o3da_align>  (86) 
0.28124846113922253

>  <RMSD>  (86) 
0.040363293893503863

>  <CONVERGED>  (86) 
0

>  <ENERGY>  (86) 
-20.617549735117578

$$$$
e53ffe04-084f-4e83-abda-01244305c58f
     RDKit          3D

 16 17  0  0  0  0  0  0  0  0999 V2000
   -0.8258   31.1708    0.4826 C   0  0  0  0  0  0  0  0  0  0  0  0
   -1.0960   30.4447    1.5770 C   0  0  0  0  0  0  0  0  0  0  0  0
   -1.0542   31.0670    2.9509 C   0  0  0  0  0  0  0  0  0  0  0  0
   -2.2476   30.6203    3.7632 C   0  0  0  0  0  0  0  0  0  0  0  0
   -2.7178   31.3049    4.6701 O   0  0  0  0  0  0  0  0  0  0  0  0
   -2.7536   29.2590    3.4677 C   0  0  0  0  0  0  0  0  0  0  0  0
   -3.6417   28.6741    4.2777 C   0  0  0  0  0  0  0  0  0  0  0  0
   -4.1220   27.2870    4.0535 C   0  0  0  0  0  0  0  0  0  0  0  0
   -5.0122   26.8510    4.8694 N   0  0  0  0  0  0  0  0  0  0  0  0
   -5.5911   25.5211    4.7910 C   0  0  1  0  0  0  0  0  0  0  0  0
   -6.6174   25.4353    3.6697 C   0  0  0  0  0  0  0  0  0  0  0  0
   -4.6656   24.4541    4.6857 O   0  0  0  0  0  0  0  0  0  0  0  0
   -3.4937   26.5710    2.9116 C   0  0  0  0  0  0  0  0  0  0  0  0
   -2.6048   27.1580    2.1047 C   0  0  0  0  0  0  0  0  0  0  0  0
   -2.1986   28.5665    2.2877 C   0  0  0  0  0  0  0  0  0  0  0  0
   -1.4027   29.1136    1.4219 N   0  0  0  0  0  0  0  0  0  0  0  0
  1  2  2  3
  2  3  1  0
  3  4  1  0
  4  5  2  0
  4  6  1  0
  6  7  2  0
  7  8  1  0
  8  9  2  3
  9 10  1  0
 10 11  1  6
 10 12  1  0
  8 13  1  0
 13 14  2  0
 14 15  1  0
 15 16  2  0
 16  2  1  0
 15  6  1  0
M  END
>  <Energy>  (87) 
-22.939528826767489

>  <Energy_Delta>  (87) 
2.7417449229737834

>  <std_smi>  (87) 
CC(=O)Nc1ccc2nc(C)cc(O)c2c1

>  <enum_smi>  (87) 
C=C1CC(=O)C2=CC(=NC(C)O)C=CC2=N1

>  <enum_code>  (87) 
T

>  <parent_uuid>  (87) 
ea1addea-57d6-4931-9057-ca9db5b0445d

>  <o3da_score>  (87) 
70.353361765422989

>  <o3da_score_rel>  (87) 
0.28008695524166743

>  <o3da_align>  (87) 
0.63223097493608293

>  <RMSD>  (87) 
7.0899768805680698e-05

>  <CONVERGED>  (87) 
0

>  <ENERGY>  (87) 
-22.939528827121155

$$$$
e53ffe04-084f-4e83-abda-01244305c58f
     RDKit          3D

 16 17  0  0  0  0  0  0  0  0999 V2000
   -1.6796   21.1353    3.7446 C   0  0  0  0  0  0  0  0  0  0  0  0
   -2.0721   22.1853    4.4805 C   0  0  0  0  0  0  0  0  0  0  0  0
   -1.1070   22.8953    5.3965 C   0  0  0  0  0  0  0  0  0  0  0  0
   -1.2634   24.3928    5.2664 C   0  0  0  0  0  0  0  0  0  0  0  0
   -0.3436   25.1703    5.5164 O   0  0  0  0  0  0  0  0  0  0  0  0
   -2.6251   24.8732    4.9276 C   0  0  0  0  0  0  0  0  0  0  0  0
   -2.9183   26.1766    5.0032 C   0  0  0  0  0  0  0  0  0  0  0  0
   -4.2924   26.6802    4.7474 C   0  0  0  0  0  0  0  0  0  0  0  0
   -4.6983   27.9003    4.7528 N   0  0  0  0  0  0  0  0  0  0  0  0
   -3.7581   28.9842    4.9878 C   0  0  2  0  0  0  0  0  0  0  0  0
   -4.5490   30.2882    4.9296 C   0  0  0  0  0  0  0  0  0  0  0  0
   -2.6919   29.0628    4.0526 O   0  0  0  0  0  0  0  0  0  0  0  0
   -5.3172   25.6390    4.4778 C   0  0  0  0  0  0  0  0  0  0  0  0
   -5.0215   24.3394    4.4011 C   0  0  0  0  0  0  0  0  0  0  0  0
   -3.6360   23.8564    4.5692 C   0  0  0  0  0  0  0  0  0  0  0  0
   -3.3803   22.5970    4.3912 N   0  0  0  0  0  0  0  0  0  0  0  0
  1  2  2  3
  2  3  1  0
  3  4  1  0
  4  5  2  0
  4  6  1  0
  6  7  2  0
  7  8  1  0
  8  9  2  3
  9 10  1  0
 10 11  1  6
 10 12  1  0
  8 13  1  0
 13 14  2  0
 14 15  1  0
 15 16  2  0
 16  2  1  0
 15  6  1  0
M  END
>  <Energy>  (88) 
-22.428032540450111

>  <Energy_Delta>  (88) 
3.2532412092911613

>  <std_smi>  (88) 
CC(=O)Nc1ccc2nc(C)cc(O)c2c1

>  <enum_smi>  (88) 
C=C1CC(=O)C2=CC(=NC(C)O)C=CC2=N1

>  <enum_code>  (88) 
T

>  <parent_uuid>  (88) 
ea1addea-57d6-4931-9057-ca9db5b0445d

>  <o3da_score>  (88) 
92.707052523515799

>  <o3da_score_rel>  (88) 
0.36908024604877621

>  <o3da_align>  (88) 
0.47438259120704085

>  <RMSD>  (88) 
7.025140078555782e-05

>  <CONVERGED>  (88) 
0

>  <ENERGY>  (88) 
-22.428032540544471

$$$$
e53ffe04-084f-4e83-abda-01244305c58f
     RDKit          3D

 16 17  0  0  0  0  0  0  0  0999 V2000
   -1.3759   21.1879    4.0914 C   0  0  0  0  0  0  0  0  0  0  0  0
   -1.9077   22.2098    4.7777 C   0  0  0  0  0  0  0  0  0  0  0  0
   -1.1000   22.9523    5.8133 C   0  0  0  0  0  0  0  0  0  0  0  0
   -1.3110   24.4421    5.6731 C   0  0  0  0  0  0  0  0  0  0  0  0
   -0.4614   25.2598    6.0218 O   0  0  0  0  0  0  0  0  0  0  0  0
   -2.6476   24.8589    5.1870 C   0  0  0  0  0  0  0  0  0  0  0  0
   -3.0257   26.1392    5.2567 C   0  0  0  0  0  0  0  0  0  0  0  0
   -4.3819   26.5829    4.8488 C   0  0  0  0  0  0  0  0  0  0  0  0
   -4.6278   27.8419    4.9295 N   0  0  0  0  0  0  0  0  0  0  0  0
   -5.9266   28.3699    4.5471 C   0  0  1  0  0  0  0  0  0  0  0  0
   -5.8725   29.8824    4.7504 C   0  0  0  0  0  0  0  0  0  0  0  0
   -6.3144   28.1030    3.2059 O   0  0  0  0  0  0  0  0  0  0  0  0
   -5.3077   25.5031    4.4143 C   0  0  0  0  0  0  0  0  0  0  0  0
   -4.9263   24.2242    4.3468 C   0  0  0  0  0  0  0  0  0  0  0  0
   -3.5513   23.8036    4.6866 C   0  0  0  0  0  0  0  0  0  0  0  0
   -3.2121   22.5618    4.5242 N   0  0  0  0  0  0  0  0  0  0  0  0
  1  2  2  3
  2  3  1  0
  3  4  1  0
  4  5  2  0
  4  6  1  0
  6  7  2  0
  7  8  1  0
  8  9  2  3
  9 10  1  0
 10 11  1  6
 10 12  1  0
  8 13  1  0
 13 14  2  0
 14 15  1  0
 15 16  2  0
 16  2  1  0
 15  6  1  0
M  END
>  <Energy>  (89) 
-22.187793831772915

>  <Energy_Delta>  (89) 
3.493479917968358

>  <std_smi>  (89) 
CC(=O)Nc1ccc2nc(C)cc(O)c2c1

>  <enum_smi>  (89) 
C=C1CC(=O)C2=CC(=NC(C)O)C=CC2=N1

>  <enum_code>  (89) 
T

>  <parent_uuid>  (89) 
ea1addea-57d6-4931-9057-ca9db5b0445d

>  <o3da_score>  (89) 
85.443852265179473

>  <o3da_score_rel>  (89) 
0.34016439050727543

>  <o3da_align>  (89) 
0.18841192232377171

>  <RMSD>  (89) 
5.0980337358180206e-05

>  <CONVERGED>  (89) 
0

>  <ENERGY>  (89) 
-22.187793831865548

$$$$
e53ffe04-084f-4e83-abda-01244305c58f
     RDKit          3D

 16 17  0  0  0  0  0  0  0  0999 V2000
   -1.9282   20.9243    5.7225 C   0  0  0  0  0  0  0  0  0  0  0  0
   -2.0319   22.1435    5.1740 C   0  0  0  0  0  0  0  0  0  0  0  0
   -0.8437   23.0717    5.1152 C   0  0  0  0  0  0  0  0  0  0  0  0
   -1.2557   24.4703    5.5117 C   0  0  0  0  0  0  0  0  0  0  0  0
   -0.4695   25.2663    6.0220 O   0  0  0  0  0  0  0  0  0  0  0  0
   -2.6416   24.8558    5.1557 C   0  0  0  0  0  0  0  0  0  0  0  0
   -3.0321   26.1320    5.2300 C   0  0  0  0  0  0  0  0  0  0  0  0
   -4.3899   26.5695    4.8162 C   0  0  0  0  0  0  0  0  0  0  0  0
   -4.6613   27.8126    4.9807 N   0  0  0  0  0  0  0  0  0  0  0  0
   -5.9287   28.4188    4.6089 C   0  0  2  0  0  0  0  0  0  0  0  0
   -6.9587   28.1930    5.7087 C   0  0  0  0  0  0  0  0  0  0  0  0
   -6.4767   28.0398    3.3547 O   0  0  0  0  0  0  0  0  0  0  0  0
   -5.2604   25.5011    4.2587 C   0  0  0  0  0  0  0  0  0  0  0  0
   -4.8671   24.2261    4.1840 C   0  0  0  0  0  0  0  0  0  0  0  0
   -3.5415   23.7914    4.6689 C   0  0  0  0  0  0  0  0  0  0  0  0
   -3.2450   22.5283    4.6543 N   0  0  0  0  0  0  0  0  0  0  0  0
  1  2  2  3
  2  3  1  0
  3  4  1  0
  4  5  2  0
  4  6  1  0
  6  7  2  0
  7  8  1  0
  8  9  2  3
  9 10  1  0
 10 11  1  1
 10 12  1  0
  8 13  1  0
 13 14  2  0
 14 15  1  0
 15 16  2  0
 16  2  1  0
 15  6  1  0
M  END
>  <Energy>  (90) 
-20.68807049943219

>  <Energy_Delta>  (90) 
4.9932032503090831

>  <std_smi>  (90) 
CC(=O)Nc1ccc2nc(C)cc(O)c2c1

>  <enum_smi>  (90) 
C=C1CC(=O)C2=CC(=NC(C)O)C=CC2=N1

>  <enum_code>  (90) 
T

>  <parent_uuid>  (90) 
ea1addea-57d6-4931-9057-ca9db5b0445d

>  <o3da_score>  (90) 
85.538464333002153

>  <o3da_score_rel>  (90) 
0.34054105489602104

>  <o3da_align>  (90) 
0.18251739101988174

>  <RMSD>  (90) 
6.7337950091509734e-05

>  <CONVERGED>  (90) 
0

>  <ENERGY>  (90) 
-20.68807049972882

$$$$
e53ffe04-084f-4e83-abda-01244305c58f
     RDKit          3D

 16 17  0  0  0  0  0  0  0  0999 V2000
   -1.5445   21.0669    4.1818 C   0  0  0  0  0  0  0  0  0  0  0  0
   -2.0238   22.1232    4.8544 C   0  0  0  0  0  0  0  0  0  0  0  0
   -1.1898   22.8234    5.8978 C   0  0  0  0  0  0  0  0  0  0  0  0
   -1.3032   24.3223    5.7413 C   0  0  0  0  0  0  0  0  0  0  0  0
   -0.4147   25.0863    6.1152 O   0  0  0  0  0  0  0  0  0  0  0  0
   -2.5962   24.8203    5.2110 C   0  0  0  0  0  0  0  0  0  0  0  0
   -2.8790   26.1281    5.2380 C   0  0  0  0  0  0  0  0  0  0  0  0
   -4.1941   26.6517    4.7882 C   0  0  0  0  0  0  0  0  0  0  0  0
   -4.5893   27.8709    4.7201 N   0  0  0  0  0  0  0  0  0  0  0  0
   -3.7392   29.0062    5.0418 C   0  0  1  0  0  0  0  0  0  0  0  0
   -3.7523   29.2584    6.5447 C   0  0  0  0  0  0  0  0  0  0  0  0
   -2.4017   28.9521    4.5711 O   0  0  0  0  0  0  0  0  0  0  0  0
   -5.1872   25.6189    4.3903 C   0  0  0  0  0  0  0  0  0  0  0  0
   -4.9033   24.3148    4.3613 C   0  0  0  0  0  0  0  0  0  0  0  0
   -3.5610   23.8149    4.7189 C   0  0  0  0  0  0  0  0  0  0  0  0
   -3.3009   22.5512    4.5815 N   0  0  0  0  0  0  0  0  0  0  0  0
  1  2  2  3
  2  3  1  0
  3  4  1  0
  4  5  2  0
  4  6  1  0
  6  7  2  0
  7  8  1  0
  8  9  2  3
  9 10  1  0
 10 11  1  1
 10 12  1  0
  8 13  1  0
 13 14  2  0
 14 15  1  0
 15 16  2  0
 16  2  1  0
 15  6  1  0
M  END
>  <Energy>  (91) 
-20.627384292384768

>  <Energy_Delta>  (91) 
5.0538894573565045

>  <std_smi>  (91) 
CC(=O)Nc1ccc2nc(C)cc(O)c2c1

>  <enum_smi>  (91) 
C=C1CC(=O)C2=CC(=NC(C)O)C=CC2=N1

>  <enum_code>  (91) 
T

>  <parent_uuid>  (91) 
ea1addea-57d6-4931-9057-ca9db5b0445d

>  <o3da_score>  (91) 
85.843536783500923

>  <o3da_score_rel>  (91) 
0.34175559264722644

>  <o3da_align>  (91) 
0.16090884216201773

>  <RMSD>  (91) 
6.673591138018801e-05

>  <CONVERGED>  (91) 
0

>  <ENERGY>  (91) 
-20.627384292412518

$$$$
0fb9f238-cf2a-4589-9b3a-2856fd8be533
     RDKit          3D

 16 17  0  0  0  0  0  0  0  0999 V2000
   -5.7389   23.4262    3.5579 C   0  0  0  0  0  0  0  0  0  0  0  0
   -4.9711   24.2604    4.2769 C   0  0  0  0  0  0  0  0  0  0  0  0
   -3.7876   23.7212    5.0476 C   0  0  0  0  0  0  0  0  0  0  0  0
   -2.6592   24.7235    5.2094 C   0  0  0  0  0  0  0  0  0  0  0  0
   -1.5007   24.3663    5.4209 O   0  0  0  0  0  0  0  0  0  0  0  0
   -2.9941   26.1642    5.1830 C   0  0  0  0  0  0  0  0  0  0  0  0
   -2.0446   27.1099    5.5887 C   0  0  0  0  0  0  0  0  0  0  0  0
   -2.3592   28.4680    5.5609 C   0  0  0  0  0  0  0  0  0  0  0  0
   -1.4387   29.4313    5.9848 N   0  0  0  0  0  0  0  0  0  0  0  0
   -0.4829   29.7898    5.1944 C   0  0  0  0  0  0  0  0  0  0  0  0
   -0.2047   29.2919    3.8053 C   0  0  0  0  0  0  0  0  0  0  0  0
    0.4047   30.6948    5.6498 O   0  0  0  0  0  0  0  0  0  0  0  0
   -3.6389   28.8626    5.1650 C   0  0  0  0  0  0  0  0  0  0  0  0
   -4.5850   27.9152    4.7599 C   0  0  0  0  0  0  0  0  0  0  0  0
   -4.2635   26.5540    4.7404 C   0  0  0  0  0  0  0  0  0  0  0  0
   -5.2250   25.6112    4.3522 N   0  0  0  0  0  0  0  0  0  0  0  0
  1  2  2  3
  2  3  1  0
  3  4  1  0
  4  5  2  0
  4  6  1  0
  6  7  2  0
  7  8  1  0
  8  9  1  0
  9 10  2  3
 10 11  1  0
 10 12  1  0
  8 13  2  0
 13 14  1  0
 14 15  2  0
 15 16  1  0
 16  2  1  0
 15  6  1  0
M  END
>  <Energy>  (92) 
9.6958900527194452

>  <Energy_Delta>  (92) 
0

>  <std_smi>  (92) 
CC(=O)Nc1ccc2nc(C)cc(O)c2c1

>  <enum_smi>  (92) 
C=C1CC(=O)c2cc(N=C(C)O)ccc2N1

>  <enum_code>  (92) 
T

>  <parent_uuid>  (92) 
ea1addea-57d6-4931-9057-ca9db5b0445d

>  <o3da_score>  (92) 
74.532237683031752

>  <o3da_score_rel>  (92) 
0.2967236674431164

>  <o3da_align>  (92) 
0.19297370290930041

>  <RMSD>  (92) 
0.063992311272160249

>  <CONVERGED>  (92) 
0

>  <ENERGY>  (92) 
18.498276025920298

$$$$
0fb9f238-cf2a-4589-9b3a-2856fd8be533
     RDKit          3D

 16 17  0  0  0  0  0  0  0  0999 V2000
   -3.9625   30.2451    4.8887 C   0  0  0  0  0  0  0  0  0  0  0  0
   -3.7418   28.9534    5.1807 C   0  0  0  0  0  0  0  0  0  0  0  0
   -2.4994   28.5538    5.9436 C   0  0  0  0  0  0  0  0  0  0  0  0
   -2.0076   27.1557    5.6160 C   0  0  0  0  0  0  0  0  0  0  0  0
   -0.8375   26.8211    5.7984 O   0  0  0  0  0  0  0  0  0  0  0  0
   -2.9930   26.1621    5.1359 C   0  0  0  0  0  0  0  0  0  0  0  0
   -2.6465   24.8069    5.0761 C   0  0  0  0  0  0  0  0  0  0  0  0
   -3.5743   23.8708    4.6207 C   0  0  0  0  0  0  0  0  0  0  0  0
   -3.2628   22.5085    4.5753 N   0  0  0  0  0  0  0  0  0  0  0  0
   -2.5480   22.0510    3.6024 C   0  0  0  0  0  0  0  0  0  0  0  0
   -1.9723   22.8175    2.4465 C   0  0  0  0  0  0  0  0  0  0  0  0
   -2.2393   20.7399    3.6102 O   0  0  0  0  0  0  0  0  0  0  0  0
   -4.8560   24.2984    4.2681 C   0  0  0  0  0  0  0  0  0  0  0  0
   -5.1987   25.6533    4.3285 C   0  0  0  0  0  0  0  0  0  0  0  0
   -4.2604   26.6054    4.7402 C   0  0  0  0  0  0  0  0  0  0  0  0
   -4.6199   27.9578    4.8167 N   0  0  0  0  0  0  0  0  0  0  0  0
  1  2  2  3
  2  3  1  0
  3  4  1  0
  4  5  2  0
  4  6  1  0
  6  7  2  0
  7  8  1  0
  8  9  1  0
  9 10  2  3
 10 11  1  0
 10 12  1  0
  8 13  2  0
 13 14  1  0
 14 15  2  0
 15 16  1  0
 16  2  1  0
 15  6  1  0
M  END
>  <Energy>  (93) 
9.6958900528974219

>  <Energy_Delta>  (93) 
1.7797674445318989e-10

>  <std_smi>  (93) 
CC(=O)Nc1ccc2nc(C)cc(O)c2c1

>  <enum_smi>  (93) 
C=C1CC(=O)c2cc(N=C(C)O)ccc2N1

>  <enum_code>  (93) 
T

>  <parent_uuid>  (93) 
ea1addea-57d6-4931-9057-ca9db5b0445d

>  <o3da_score>  (93) 
76.537372800972179

>  <o3da_score_rel>  (93) 
0.30470640168550617

>  <o3da_align>  (93) 
0.12507296160151957

>  <RMSD>  (93) 
0.063988264319646826

>  <CONVERGED>  (93) 
0

>  <ENERGY>  (93) 
18.498276025916311

$$$$
0fb9f238-cf2a-4589-9b3a-2856fd8be533
     RDKit          3D

 16 17  0  0  0  0  0  0  0  0999 V2000
   -1.8125   20.6714    4.5000 C   0  0  0  0  0  0  0  0  0  0  0  0
   -2.2046   21.8785    4.9380 C   0  0  0  0  0  0  0  0  0  0  0  0
   -1.3377   22.6471    5.9085 C   0  0  0  0  0  0  0  0  0  0  0  0
   -1.4737   24.1547    5.7921 C   0  0  0  0  0  0  0  0  0  0  0  0
   -0.5983   24.9137    6.2077 O   0  0  0  0  0  0  0  0  0  0  0  0
   -2.7306   24.7045    5.2372 C   0  0  0  0  0  0  0  0  0  0  0  0
   -2.9943   26.0762    5.3303 C   0  0  0  0  0  0  0  0  0  0  0  0
   -4.1836   26.5938    4.8175 C   0  0  0  0  0  0  0  0  0  0  0  0
   -4.4818   27.9578    4.9295 N   0  0  0  0  0  0  0  0  0  0  0  0
   -3.9554   28.7708    4.0759 C   0  0  0  0  0  0  0  0  0  0  0  0
   -4.2035   30.2439    4.1262 C   0  0  0  0  0  0  0  0  0  0  0  0
   -3.1485   28.3749    3.0717 O   0  0  0  0  0  0  0  0  0  0  0  0
   -5.1147   25.7239    4.2464 C   0  0  0  0  0  0  0  0  0  0  0  0
   -4.8466   24.3544    4.1508 C   0  0  0  0  0  0  0  0  0  0  0  0
   -3.6375   23.8326    4.6232 C   0  0  0  0  0  0  0  0  0  0  0  0
   -3.3898   22.4547    4.5407 N   0  0  0  0  0  0  0  0  0  0  0  0
  1  2  2  3
  2  3  1  0
  3  4  1  0
  4  5  2  0
  4  6  1  0
  6  7  2  0
  7  8  1  0
  8  9  1  0
  9 10  2  3
 10 11  1  0
 10 12  1  0
  8 13  2  0
 13 14  1  0
 14 15  2  0
 15 16  1  0
 16  2  1  0
 15  6  1  0
M  END
>  <Energy>  (94) 
13.370988087750373

>  <Energy_Delta>  (94) 
3.6750980350309277

>  <std_smi>  (94) 
CC(=O)Nc1ccc2nc(C)cc(O)c2c1

>  <enum_smi>  (94) 
C=C1CC(=O)c2cc(N=C(C)O)ccc2N1

>  <enum_code>  (94) 
T

>  <parent_uuid>  (94) 
ea1addea-57d6-4931-9057-ca9db5b0445d

>  <o3da_score>  (94) 
85.130429538362307

>  <o3da_score_rel>  (94) 
0.33891660909278581

>  <o3da_align>  (94) 
0.42560175598565619

>  <RMSD>  (94) 
0.056406974379308125

>  <CONVERGED>  (94) 
0

>  <ENERGY>  (94) 
16.755122368446443

$$$$
0fb9f238-cf2a-4589-9b3a-2856fd8be533
     RDKit          3D

 16 17  0  0  0  0  0  0  0  0999 V2000
   -3.9591   30.2341    4.8427 C   0  0  0  0  0  0  0  0  0  0  0  0
   -3.7415   28.9475    5.1591 C   0  0  0  0  0  0  0  0  0  0  0  0
   -2.5005   28.5594    5.9292 C   0  0  0  0  0  0  0  0  0  0  0  0
   -2.0093   27.1535    5.6340 C   0  0  0  0  0  0  0  0  0  0  0  0
   -0.8462   26.8182    5.8573 O   0  0  0  0  0  0  0  0  0  0  0  0
   -2.9878   26.1575    5.1436 C   0  0  0  0  0  0  0  0  0  0  0  0
   -2.6371   24.8035    5.0856 C   0  0  0  0  0  0  0  0  0  0  0  0
   -3.5623   23.8625    4.6339 C   0  0  0  0  0  0  0  0  0  0  0  0
   -3.2430   22.4991    4.5990 N   0  0  0  0  0  0  0  0  0  0  0  0
   -2.5566   22.0574    3.5987 C   0  0  0  0  0  0  0  0  0  0  0  0
   -2.1559   20.6220    3.4837 C   0  0  0  0  0  0  0  0  0  0  0  0
   -2.1464   22.8347    2.5771 O   0  0  0  0  0  0  0  0  0  0  0  0
   -4.8446   24.2849    4.2772 C   0  0  0  0  0  0  0  0  0  0  0  0
   -5.1907   25.6390    4.3321 C   0  0  0  0  0  0  0  0  0  0  0  0
   -4.2555   26.5953    4.7424 C   0  0  0  0  0  0  0  0  0  0  0  0
   -4.6216   27.9472    4.8133 N   0  0  0  0  0  0  0  0  0  0  0  0
  1  2  2  3
  2  3  1  0
  3  4  1  0
  4  5  2  0
  4  6  1  0
  6  7  2  0
  7  8  1  0
  8  9  1  0
  9 10  2  3
 10 11  1  0
 10 12  1  0
  8 13  2  0
 13 14  1  0
 14 15  2  0
 15 16  1  0
 16  2  1  0
 15  6  1  0
M  END
>  <Energy>  (95) 
13.370988087787147

>  <Energy_Delta>  (95) 
3.6750980350677018

>  <std_smi>  (95) 
CC(=O)Nc1ccc2nc(C)cc(O)c2c1

>  <enum_smi>  (95) 
C=C1CC(=O)c2cc(N=C(C)O)ccc2N1

>  <enum_code>  (95) 
T

>  <parent_uuid>  (95) 
ea1addea-57d6-4931-9057-ca9db5b0445d

>  <o3da_score>  (95) 
76.479937515124973

>  <o3da_score_rel>  (95) 
0.30447774346743811

>  <o3da_align>  (95) 
0.13134356271233033

>  <RMSD>  (95) 
0.056391995581380132

>  <CONVERGED>  (95) 
0

>  <ENERGY>  (95) 
16.755122368427973

$$$$
2957eda6-b1ec-4a86-ab2b-d2a4bb6cf19c
     RDKit          3D

 16 17  0  0  0  0  0  0  0  0999 V2000
   -5.7550   23.4478    3.5291 C   0  0  0  0  0  0  0  0  0  0  0  0
   -4.9790   24.2674    4.2562 C   0  0  0  0  0  0  0  0  0  0  0  0
   -3.8043   23.7067    5.0242 C   0  0  0  0  0  0  0  0  0  0  0  0
   -2.6764   24.6996    5.2415 C   0  0  0  0  0  0  0  0  0  0  0  0
   -1.5367   24.3318    5.5275 O   0  0  0  0  0  0  0  0  0  0  0  0
   -2.9871   26.1451    5.1849 C   0  0  0  0  0  0  0  0  0  0  0  0
   -2.0231   27.0823    5.5846 C   0  0  0  0  0  0  0  0  0  0  0  0
   -2.3137   28.4491    5.5585 C   0  0  0  0  0  0  0  0  0  0  0  0
   -1.2960   29.3319    5.9744 N   0  0  0  0  0  0  0  0  0  0  0  0
   -1.3534   30.7124    6.0399 C   0  0  0  0  0  0  0  0  0  0  0  0
   -0.0637   31.3147    6.5396 C   0  0  0  0  0  0  0  0  0  0  0  0
   -2.3129   31.4239    5.7653 O   0  0  0  0  0  0  0  0  0  0  0  0
   -3.5785   28.8569    5.1331 C   0  0  0  0  0  0  0  0  0  0  0  0
   -4.5355   27.9154    4.7288 C   0  0  0  0  0  0  0  0  0  0  0  0
   -4.2432   26.5491    4.7279 C   0  0  0  0  0  0  0  0  0  0  0  0
   -5.2174   25.6205    4.3399 N   0  0  0  0  0  0  0  0  0  0  0  0
  1  2  2  3
  2  3  1  0
  3  4  1  0
  4  5  2  0
  4  6  1  0
  6  7  2  0
  7  8  1  0
  8  9  1  0
  9 10  1  0
 10 11  1  0
 10 12  2  0
  8 13  2  0
 13 14  1  0
 14 15  2  0
 15 16  1  0
 16  2  1  0
 15  6  1  0
M  END
>  <Energy>  (96) 
22.138579298128562

>  <Energy_Delta>  (96) 
0

>  <std_smi>  (96) 
CC(=O)Nc1ccc2nc(C)cc(O)c2c1

>  <enum_smi>  (96) 
C=C1CC(=O)c2cc(NC(C)=O)ccc2N1

>  <enum_code>  (96) 
T

>  <parent_uuid>  (96) 
ea1addea-57d6-4931-9057-ca9db5b0445d

>  <o3da_score>  (96) 
74.638089721485258

>  <o3da_score_rel>  (96) 
0.29714507978806476

>  <o3da_align>  (96) 
0.18455325360864297

>  <RMSD>  (96) 
0.016674749754649668

>  <CONVERGED>  (96) 
0

>  <ENERGY>  (96) 
22.142284028919196

$$$$
2957eda6-b1ec-4a86-ab2b-d2a4bb6cf19c
     RDKit          3D

 16 17  0  0  0  0  0  0  0  0999 V2000
   -5.7520   23.5519    3.6741 C   0  0  0  0  0  0  0  0  0  0  0  0
   -4.8616   24.5560    3.6356 C   0  0  0  0  0  0  0  0  0  0  0  0
   -3.7103   24.5072    2.6586 C   0  0  0  0  0  0  0  0  0  0  0  0
   -3.2395   25.8759    2.2014 C   0  0  0  0  0  0  0  0  0  0  0  0
   -2.6217   26.0201    1.1475 O   0  0  0  0  0  0  0  0  0  0  0  0
   -3.4676   27.0330    3.0992 C   0  0  0  0  0  0  0  0  0  0  0  0
   -2.8338   28.2601    2.8422 C   0  0  0  0  0  0  0  0  0  0  0  0
   -3.0293   29.3413    3.7013 C   0  0  0  0  0  0  0  0  0  0  0  0
   -2.4345   30.6090    3.5333 N   0  0  0  0  0  0  0  0  0  0  0  0
   -1.5830   31.0139    2.5211 C   0  0  0  0  0  0  0  0  0  0  0  0
   -1.1563   32.4526    2.6767 C   0  0  0  0  0  0  0  0  0  0  0  0
   -1.1994   30.3468    1.5685 O   0  0  0  0  0  0  0  0  0  0  0  0
   -3.8615   29.1748    4.8155 C   0  0  0  0  0  0  0  0  0  0  0  0
   -4.4963   27.9524    5.0628 C   0  0  0  0  0  0  0  0  0  0  0  0
   -4.3244   26.8724    4.1935 C   0  0  0  0  0  0  0  0  0  0  0  0
   -4.9477   25.6475    4.4696 N   0  0  0  0  0  0  0  0  0  0  0  0
  1  2  2  3
  2  3  1  0
  3  4  1  0
  4  5  2  0
  4  6  1  0
  6  7  2  0
  7  8  1  0
  8  9  1  0
  9 10  1  0
 10 11  1  0
 10 12  2  0
  8 13  2  0
 13 14  1  0
 14 15  2  0
 15 16  1  0
 16  2  1  0
 15  6  1  0
M  END
>  <Energy>  (97) 
25.132544097412044

>  <Energy_Delta>  (97) 
2.9939647992834821

>  <std_smi>  (97) 
CC(=O)Nc1ccc2nc(C)cc(O)c2c1

>  <enum_smi>  (97) 
C=C1CC(=O)c2cc(NC(C)=O)ccc2N1

>  <enum_code>  (97) 
T

>  <parent_uuid>  (97) 
ea1addea-57d6-4931-9057-ca9db5b0445d

>  <o3da_score>  (97) 
80.308014154879842

>  <o3da_score_rel>  (97) 
0.31971787277406144

>  <o3da_align>  (97) 
0.38845965719682413

>  <RMSD>  (97) 
0.024795123369715788

>  <CONVERGED>  (97) 
0

>  <ENERGY>  (97) 
25.141751437898961

$$$$
2957eda6-b1ec-4a86-ab2b-d2a4bb6cf19c
     RDKit          3D

 16 17  0  0  0  0  0  0  0  0999 V2000
   -7.9261   27.7836    3.0689 C   0  0  0  0  0  0  0  0  0  0  0  0
   -6.8919   27.3694    3.8182 C   0  0  0  0  0  0  0  0  0  0  0  0
   -6.1142   28.3641    4.6477 C   0  0  0  0  0  0  0  0  0  0  0  0
   -4.6567   27.9875    4.8422 C   0  0  0  0  0  0  0  0  0  0  0  0
   -3.8079   28.8350    5.1149 O   0  0  0  0  0  0  0  0  0  0  0  0
   -4.2884   26.5532    4.7782 C   0  0  0  0  0  0  0  0  0  0  0  0
   -3.0177   26.1322    5.2042 C   0  0  0  0  0  0  0  0  0  0  0  0
   -2.6800   24.7796    5.1645 C   0  0  0  0  0  0  0  0  0  0  0  0
   -1.4344   24.2581    5.5718 N   0  0  0  0  0  0  0  0  0  0  0  0
   -0.3597   24.9536    6.0960 C   0  0  0  0  0  0  0  0  0  0  0  0
    0.8073   24.0500    6.4088 C   0  0  0  0  0  0  0  0  0  0  0  0
   -0.3023   26.1539    6.3322 O   0  0  0  0  0  0  0  0  0  0  0  0
   -3.6280   23.8616    4.6949 C   0  0  0  0  0  0  0  0  0  0  0  0
   -4.8902   24.2872    4.2659 C   0  0  0  0  0  0  0  0  0  0  0  0
   -5.2276   25.6427    4.2818 C   0  0  0  0  0  0  0  0  0  0  0  0
   -6.5050   26.0496    3.8722 N   0  0  0  0  0  0  0  0  0  0  0  0
  1  2  2  3
  2  3  1  0
  3  4  1  0
  4  5  2  0
  4  6  1  0
  6  7  2  0
  7  8  1  0
  8  9  1  0
  9 10  1  0
 10 11  1  0
 10 12  2  0
  8 13  2  0
 13 14  1  0
 14 15  2  0
 15 16  1  0
 16  2  1  0
 15  6  1  0
M  END
>  <Energy>  (98) 
25.13254409923756

>  <Energy_Delta>  (98) 
2.9939648011089979

>  <std_smi>  (98) 
CC(=O)Nc1ccc2nc(C)cc(O)c2c1

>  <enum_smi>  (98) 
C=C1CC(=O)c2cc(NC(C)=O)ccc2N1

>  <enum_code>  (98) 
T

>  <parent_uuid>  (98) 
ea1addea-57d6-4931-9057-ca9db5b0445d

>  <o3da_score>  (98) 
78.230878333902865

>  <o3da_score_rel>  (98) 
0.31144849327147772

>  <o3da_align>  (98) 
0.13317742310790565

>  <RMSD>  (98) 
6.8418239842804642e-05

>  <CONVERGED>  (98) 
0

>  <ENERGY>  (98) 
25.13254409644523

$$$$
aa0382f9-7153-464c-be38-3a44a3e0edda
     RDKit          3D

 16 17  0  0  0  0  0  0  0  0999 V2000
   -3.8905   30.0918    4.5510 C   0  0  0  0  0  0  0  0  0  0  0  0
   -3.7204   28.8591    5.0512 C   0  0  0  0  0  0  0  0  0  0  0  0
   -2.5854   28.5554    6.0035 C   0  0  0  0  0  0  0  0  0  0  0  0
   -2.1322   27.1197    5.9421 C   0  0  0  0  0  0  0  0  0  0  0  0
   -0.9117   26.8964    6.5555 O   0  0  0  0  0  0  0  0  0  0  0  0
   -2.8782   26.1651    5.3546 C   0  0  0  0  0  0  0  0  0  0  0  0
   -2.5352   24.7615    5.2293 C   0  0  0  0  0  0  0  0  0  0  0  0
   -3.4043   23.8754    4.7181 C   0  0  0  0  0  0  0  0  0  0  0  0
   -3.1235   22.5444    4.6053 N   0  0  0  0  0  0  0  0  0  0  0  0
   -2.6421   22.1173    3.4840 C   0  0  0  0  0  0  0  0  0  0  0  0
   -2.3436   22.9153    2.2453 C   0  0  0  0  0  0  0  0  0  0  0  0
   -2.3774   20.8009    3.3791 O   0  0  0  0  0  0  0  0  0  0  0  0
   -4.7424   24.2822    4.3489 C   0  0  0  0  0  0  0  0  0  0  0  0
   -5.1349   25.5628    4.3728 C   0  0  0  0  0  0  0  0  0  0  0  0
   -4.2023   26.6412    4.8090 C   0  0  0  0  0  0  0  0  0  0  0  0
   -4.5974   27.8710    4.6813 N   0  0  0  0  0  0  0  0  0  0  0  0
  1  2  2  3
  2  3  1  0
  3  4  1  0
  4  5  1  0
  4  6  2  0
  6  7  1  0
  7  8  2  0
  8  9  1  0
  9 10  2  3
 10 11  1  0
 10 12  1  0
  8 13  1  0
 13 14  2  0
 14 15  1  0
 15 16  2  0
 16  2  1  0
 15  6  1  0
M  END
>  <Energy>  (99) 
19.479688479412197

>  <Energy_Delta>  (99) 
0

>  <std_smi>  (99) 
CC(=O)Nc1ccc2nc(C)cc(O)c2c1

>  <enum_smi>  (99) 
C=C1CC(O)=c2cc(N=C(C)O)ccc2=N1

>  <enum_code>  (99) 
T

>  <parent_uuid>  (99) 
ea1addea-57d6-4931-9057-ca9db5b0445d

>  <o3da_score>  (99) 
77.887553933550109

>  <o3da_score_rel>  (99) 
0.31008166895005301

>  <o3da_align>  (99) 
0.14170010412537781

>  <RMSD>  (99) 
0.13404137246565392

>  <CONVERGED>  (99) 
0

>  <ENERGY>  (99) 
28.817393238114384

$$$$
aa0382f9-7153-464c-be38-3a44a3e0edda
     RDKit          3D

 16 17  0  0  0  0  0  0  0  0999 V2000
   -8.3049   27.3991    4.5991 C   0  0  0  0  0  0  0  0  0  0  0  0
   -6.9954   27.1831    4.4060 C   0  0  0  0  0  0  0  0  0  0  0  0
   -6.0104   28.3307    4.3961 C   0  0  0  0  0  0  0  0  0  0  0  0
   -4.6264   27.9238    4.8313 C   0  0  0  0  0  0  0  0  0  0  0  0
   -3.8023   28.9943    5.1325 O   0  0  0  0  0  0  0  0  0  0  0  0
   -4.2533   26.6315    4.8919 C   0  0  0  0  0  0  0  0  0  0  0  0
   -2.9572   26.1293    5.3057 C   0  0  0  0  0  0  0  0  0  0  0  0
   -2.6586   24.8231    5.2252 C   0  0  0  0  0  0  0  0  0  0  0  0
   -1.4424   24.3186    5.5851 N   0  0  0  0  0  0  0  0  0  0  0  0
   -1.3030   23.8680    6.7888 C   0  0  0  0  0  0  0  0  0  0  0  0
   -2.3356   23.8199    7.8805 C   0  0  0  0  0  0  0  0  0  0  0  0
   -0.1022   23.3634    7.1316 O   0  0  0  0  0  0  0  0  0  0  0  0
   -3.5963   23.8855    4.6473 C   0  0  0  0  0  0  0  0  0  0  0  0
   -4.8377   24.2407    4.2904 C   0  0  0  0  0  0  0  0  0  0  0  0
   -5.3091   25.6456    4.4549 C   0  0  0  0  0  0  0  0  0  0  0  0
   -6.5607   25.8955    4.2181 N   0  0  0  0  0  0  0  0  0  0  0  0
  1  2  2  3
  2  3  1  0
  3  4  1  0
  4  5  1  0
  4  6  2  0
  6  7  1  0
  7  8  2  0
  8  9  1  0
  9 10  2  3
 10 11  1  0
 10 12  1  0
  8 13  1  0
 13 14  2  0
 14 15  1  0
 15 16  2  0
 16  2  1  0
 15  6  1  0
M  END
>  <Energy>  (100) 
19.479688479656517

>  <Energy_Delta>  (100) 
2.4432011969111045e-10

>  <std_smi>  (100) 
CC(=O)Nc1ccc2nc(C)cc(O)c2c1

>  <enum_smi>  (100) 
C=C1CC(O)=c2cc(N=C(C)O)ccc2=N1

>  <enum_code>  (100) 
T

>  <parent_uuid>  (100) 
ea1addea-57d6-4931-9057-ca9db5b0445d

>  <o3da_score>  (100) 
70.984195492103765

>  <o3da_score_rel>  (100) 
0.28259839596512426

>  <o3da_align>  (100) 
0.19616383007677252

>  <RMSD>  (100) 
0.13405464308531601

>  <CONVERGED>  (100) 
0

>  <ENERGY>  (100) 
28.817393238121628

$$$$
aa0382f9-7153-464c-be38-3a44a3e0edda
     RDKit          3D

 16 17  0  0  0  0  0  0  0  0999 V2000
   -2.2210   20.7352    5.6373 C   0  0  0  0  0  0  0  0  0  0  0  0
   -2.2347   22.0179    5.2458 C   0  0  0  0  0  0  0  0  0  0  0  0
   -1.0201   22.8989    5.4293 C   0  0  0  0  0  0  0  0  0  0  0  0
   -1.3610   24.3608    5.5582 C   0  0  0  0  0  0  0  0  0  0  0  0
   -0.3135   25.1319    6.0323 O   0  0  0  0  0  0  0  0  0  0  0  0
   -2.5723   24.8406    5.2165 C   0  0  0  0  0  0  0  0  0  0  0  0
   -3.0016   26.2247    5.2881 C   0  0  0  0  0  0  0  0  0  0  0  0
   -4.2005   26.6088    4.8212 C   0  0  0  0  0  0  0  0  0  0  0  0
   -4.6304   27.9068    4.8389 N   0  0  0  0  0  0  0  0  0  0  0  0
   -5.2385   28.3092    5.9062 C   0  0  0  0  0  0  0  0  0  0  0  0
   -5.7616   29.7037    6.0397 C   0  0  0  0  0  0  0  0  0  0  0  0
   -5.4569   27.5290    6.9841 O   0  0  0  0  0  0  0  0  0  0  0  0
   -5.0796   25.6597    4.1747 C   0  0  0  0  0  0  0  0  0  0  0  0
   -4.7960   24.3527    4.1013 C   0  0  0  0  0  0  0  0  0  0  0  0
   -3.5343   23.8086    4.6795 C   0  0  0  0  0  0  0  0  0  0  0  0
   -3.3769   22.5196    4.6759 N   0  0  0  0  0  0  0  0  0  0  0  0
  1  2  2  3
  2  3  1  0
  3  4  1  0
  4  5  1  0
  4  6  2  0
  6  7  1  0
  7  8  2  0
  8  9  1  0
  9 10  2  3
 10 11  1  0
 10 12  1  0
  8 13  1  0
 13 14  2  0
 14 15  1  0
 15 16  2  0
 16  2  1  0
 15  6  1  0
M  END
>  <Energy>  (101) 
23.083392711466505

>  <Energy_Delta>  (101) 
3.6037042320543087

>  <std_smi>  (101) 
CC(=O)Nc1ccc2nc(C)cc(O)c2c1

>  <enum_smi>  (101) 
C=C1CC(O)=c2cc(N=C(C)O)ccc2=N1

>  <enum_code>  (101) 
T

>  <parent_uuid>  (101) 
ea1addea-57d6-4931-9057-ca9db5b0445d

>  <o3da_score>  (101) 
76.718356133356934

>  <o3da_score_rel>  (101) 
0.3054269226278622

>  <o3da_align>  (101) 
0.13246100554376453

>  <RMSD>  (101) 
0.079933743566606666

>  <CONVERGED>  (101) 
0

>  <ENERGY>  (101) 
26.886592058099986

$$$$
aa0382f9-7153-464c-be38-3a44a3e0edda
     RDKit          3D

 16 17  0  0  0  0  0  0  0  0999 V2000
   -0.7421   31.9604    3.0362 C   0  0  0  0  0  0  0  0  0  0  0  0
   -1.6064   30.9610    2.8057 C   0  0  0  0  0  0  0  0  0  0  0  0
   -1.6080   30.2246    1.4854 C   0  0  0  0  0  0  0  0  0  0  0  0
   -2.1200   28.8118    1.5942 C   0  0  0  0  0  0  0  0  0  0  0  0
   -1.8396   28.0363    0.4823 O   0  0  0  0  0  0  0  0  0  0  0  0
   -2.7995   28.3838    2.6756 C   0  0  0  0  0  0  0  0  0  0  0  0
   -3.3460   27.0551    2.8786 C   0  0  0  0  0  0  0  0  0  0  0  0
   -4.0992   26.7666    3.9520 C   0  0  0  0  0  0  0  0  0  0  0  0
   -4.6605   25.5379    4.1649 N   0  0  0  0  0  0  0  0  0  0  0  0
   -3.9427   24.6656    4.7930 C   0  0  0  0  0  0  0  0  0  0  0  0
   -4.4509   23.2914    5.0922 C   0  0  0  0  0  0  0  0  0  0  0  0
   -2.6895   24.9014    5.2317 O   0  0  0  0  0  0  0  0  0  0  0  0
   -4.4404   27.7931    4.9119 C   0  0  0  0  0  0  0  0  0  0  0  0
   -3.9479   29.0365    4.8393 C   0  0  0  0  0  0  0  0  0  0  0  0
   -3.0211   29.4308    3.7402 C   0  0  0  0  0  0  0  0  0  0  0  0
   -2.4911   30.6149    3.7949 N   0  0  0  0  0  0  0  0  0  0  0  0
  1  2  2  3
  2  3  1  0
  3  4  1  0
  4  5  1  0
  4  6  2  0
  6  7  1  0
  7  8  2  0
  8  9  1  0
  9 10  2  3
 10 11  1  0
 10 12  1  0
  8 13  1  0
 13 14  2  0
 14 15  1  0
 15 16  2  0
 16  2  1  0
 15  6  1  0
M  END
>  <Energy>  (102) 
23.083392711648116

>  <Energy_Delta>  (102) 
3.6037042322359198

>  <std_smi>  (102) 
CC(=O)Nc1ccc2nc(C)cc(O)c2c1

>  <enum_smi>  (102) 
C=C1CC(O)=c2cc(N=C(C)O)ccc2=N1

>  <enum_code>  (102) 
T

>  <parent_uuid>  (102) 
ea1addea-57d6-4931-9057-ca9db5b0445d

>  <o3da_score>  (102) 
81.929691297440101

>  <o3da_score_rel>  (102) 
0.32617400510159922

>  <o3da_align>  (102) 
0.49218445414215045

>  <RMSD>  (102) 
0.079916743014527294

>  <CONVERGED>  (102) 
0

>  <ENERGY>  (102) 
26.886592058081522

$$$$
d7477b55-4a8e-4f75-a3df-c4e07bffb227
     RDKit          3D

 16 17  0  0  0  0  0  0  0  0999 V2000
   -2.2640   20.6679    5.6834 C   0  0  0  0  0  0  0  0  0  0  0  0
   -2.2661   21.9406    5.2600 C   0  0  0  0  0  0  0  0  0  0  0  0
   -1.0219   22.7938    5.3597 C   0  0  0  0  0  0  0  0  0  0  0  0
   -1.3178   24.2682    5.4500 C   0  0  0  0  0  0  0  0  0  0  0  0
   -0.2260   25.0271    5.8368 O   0  0  0  0  0  0  0  0  0  0  0  0
   -2.5326   24.7694    5.1529 C   0  0  0  0  0  0  0  0  0  0  0  0
   -2.9218   26.1675    5.1989 C   0  0  0  0  0  0  0  0  0  0  0  0
   -4.1137   26.6166    4.7586 C   0  0  0  0  0  0  0  0  0  0  0  0
   -4.5591   27.9282    4.7735 N   0  0  0  0  0  0  0  0  0  0  0  0
   -3.9641   29.1237    5.1013 C   0  0  0  0  0  0  0  0  0  0  0  0
   -4.6322   30.2843    5.0848 C   0  0  0  0  0  0  0  0  0  0  0  0
   -2.6309   29.1160    5.4400 O   0  0  0  0  0  0  0  0  0  0  0  0
   -5.0484   25.6350    4.2142 C   0  0  0  0  0  0  0  0  0  0  0  0
   -4.8120   24.3169    4.1820 C   0  0  0  0  0  0  0  0  0  0  0  0
   -3.5425   23.7502    4.7062 C   0  0  0  0  0  0  0  0  0  0  0  0
   -3.4234   22.4580    4.7363 N   0  0  0  0  0  0  0  0  0  0  0  0
  1  2  2  3
  2  3  1  0
  3  4  1  0
  4  5  1  0
  4  6  2  0
  6  7  1  0
  7  8  2  0
  8  9  1  0
  9 10  1  0
 10 11  2  3
 10 12  1  0
  8 13  1  0
 13 14  2  0
 14 15  1  0
 15 16  2  0
 16  2  1  0
 15  6  1  0
M  END
>  <Energy>  (103) 
-1.077050978591001

>  <Energy_Delta>  (103) 
0

>  <std_smi>  (103) 
CC(=O)Nc1ccc2nc(C)cc(O)c2c1

>  <enum_smi>  (103) 
C=C1CC(O)=c2cc(NC(=C)O)ccc2=N1

>  <enum_code>  (103) 
T

>  <parent_uuid>  (103) 
ea1addea-57d6-4931-9057-ca9db5b0445d

>  <o3da_score>  (103) 
83.908050823067342

>  <o3da_score_rel>  (103) 
0.33405014182060699

>  <o3da_align>  (103) 
0.1666061206303634

>  <RMSD>  (103) 
0.24736347883146681

>  <CONVERGED>  (103) 
0

>  <ENERGY>  (103) 
1.0394079090540678

$$$$
d7477b55-4a8e-4f75-a3df-c4e07bffb227
     RDKit          3D

 16 17  0  0  0  0  0  0  0  0999 V2000
   -4.1503   20.3350    5.0341 C   0  0  0  0  0  0  0  0  0  0  0  0
   -4.2514   21.5651    4.5096 C   0  0  0  0  0  0  0  0  0  0  0  0
   -5.3823   21.9215    3.5728 C   0  0  0  0  0  0  0  0  0  0  0  0
   -5.7366   23.3864    3.6026 C   0  0  0  0  0  0  0  0  0  0  0  0
   -6.9534   23.6684    3.0060 O   0  0  0  0  0  0  0  0  0  0  0  0
   -4.9150   24.3052    4.1478 C   0  0  0  0  0  0  0  0  0  0  0  0
   -5.1507   25.7364    4.2302 C   0  0  0  0  0  0  0  0  0  0  0  0
   -4.2279   26.6086    4.6906 C   0  0  0  0  0  0  0  0  0  0  0  0
   -4.5026   27.9677    4.7544 N   0  0  0  0  0  0  0  0  0  0  0  0
   -3.9097   29.0292    5.3977 C   0  0  0  0  0  0  0  0  0  0  0  0
   -4.3483   30.2868    5.2581 C   0  0  0  0  0  0  0  0  0  0  0  0
   -2.8562   28.7713    6.2415 O   0  0  0  0  0  0  0  0  0  0  0  0
   -2.9241   26.0816    5.0646 C   0  0  0  0  0  0  0  0  0  0  0  0
   -2.6238   24.7763    5.0823 C   0  0  0  0  0  0  0  0  0  0  0  0
   -3.6245   23.7522    4.6893 C   0  0  0  0  0  0  0  0  0  0  0  0
   -3.3074   22.5026    4.8413 N   0  0  0  0  0  0  0  0  0  0  0  0
  1  2  2  3
  2  3  1  0
  3  4  1  0
  4  5  1  0
  4  6  2  0
  6  7  1  0
  7  8  2  0
  8  9  1  0
  9 10  1  0
 10 11  2  3
 10 12  1  0
  8 13  1  0
 13 14  2  0
 14 15  1  0
 15 16  2  0
 16  2  1  0
 15  6  1  0
M  END
>  <Energy>  (104) 
-0.84352118079289085

>  <Energy_Delta>  (104) 
0.23352979779811012

>  <std_smi>  (104) 
CC(=O)Nc1ccc2nc(C)cc(O)c2c1

>  <enum_smi>  (104) 
C=C1CC(O)=c2cc(NC(=C)O)ccc2=N1

>  <enum_code>  (104) 
T

>  <parent_uuid>  (104) 
ea1addea-57d6-4931-9057-ca9db5b0445d

>  <o3da_score>  (104) 
83.408848357573717

>  <o3da_score_rel>  (104) 
0.33206274427341598

>  <o3da_align>  (104) 
0.20088041563241388

>  <RMSD>  (104) 
0.16989223701470671

>  <CONVERGED>  (104) 
0

>  <ENERGY>  (104) 
3.7785882290575841

$$$$
d7477b55-4a8e-4f75-a3df-c4e07bffb227
     RDKit          3D

 16 17  0  0  0  0  0  0  0  0999 V2000
   -3.4146   20.5275    3.3984 C   0  0  0  0  0  0  0  0  0  0  0  0
   -3.9726   21.6384    3.9014 C   0  0  0  0  0  0  0  0  0  0  0  0
   -5.4532   21.9019    3.7530 C   0  0  0  0  0  0  0  0  0  0  0  0
   -5.7964   23.3697    3.7529 C   0  0  0  0  0  0  0  0  0  0  0  0
   -7.0795   23.6327    3.3051 O   0  0  0  0  0  0  0  0  0  0  0  0
   -4.9210   24.3041    4.1735 C   0  0  0  0  0  0  0  0  0  0  0  0
   -5.1427   25.7392    4.2196 C   0  0  0  0  0  0  0  0  0  0  0  0
   -4.2570   26.6034    4.7609 C   0  0  0  0  0  0  0  0  0  0  0  0
   -4.5125   27.9677    4.7767 N   0  0  0  0  0  0  0  0  0  0  0  0
   -3.7320   29.0795    4.9929 C   0  0  0  0  0  0  0  0  0  0  0  0
   -4.2384   30.3192    5.0023 C   0  0  0  0  0  0  0  0  0  0  0  0
   -2.3803   28.9011    5.1642 O   0  0  0  0  0  0  0  0  0  0  0  0
   -3.0572   26.0510    5.3712 C   0  0  0  0  0  0  0  0  0  0  0  0
   -2.7293   24.7528    5.3311 C   0  0  0  0  0  0  0  0  0  0  0  0
   -3.6052   23.7595    4.6598 C   0  0  0  0  0  0  0  0  0  0  0  0
   -3.1724   22.5401    4.5548 N   0  0  0  0  0  0  0  0  0  0  0  0
  1  2  2  3
  2  3  1  0
  3  4  1  0
  4  5  1  0
  4  6  2  0
  6  7  1  0
  7  8  2  0
  8  9  1  0
  9 10  1  0
 10 11  2  3
 10 12  1  0
  8 13  1  0
 13 14  2  0
 14 15  1  0
 15 16  2  0
 16  2  1  0
 15  6  1  0
M  END
>  <Energy>  (105) 
-0.84352118035780332

>  <Energy_Delta>  (105) 
0.23352979823319764

>  <std_smi>  (105) 
CC(=O)Nc1ccc2nc(C)cc(O)c2c1

>  <enum_smi>  (105) 
C=C1CC(O)=c2cc(NC(=C)O)ccc2=N1

>  <enum_code>  (105) 
T

>  <parent_uuid>  (105) 
ea1addea-57d6-4931-9057-ca9db5b0445d

>  <o3da_score>  (105) 
84.502379338567252

>  <o3da_score_rel>  (105) 
0.33641624999429603

>  <o3da_align>  (105) 
0.12501488495262494

>  <RMSD>  (105) 
0.16989437118878856

>  <CONVERGED>  (105) 
0

>  <ENERGY>  (105) 
3.7785882290528674

$$$$
d7477b55-4a8e-4f75-a3df-c4e07bffb227
     RDKit          3D

 16 17  0  0  0  0  0  0  0  0999 V2000
   -1.8745   20.6728    4.5218 C   0  0  0  0  0  0  0  0  0  0  0  0
   -2.2014   21.8857    4.9917 C   0  0  0  0  0  0  0  0  0  0  0  0
   -1.2439   22.6635    5.8659 C   0  0  0  0  0  0  0  0  0  0  0  0
   -1.4466   24.1544    5.7896 C   0  0  0  0  0  0  0  0  0  0  0  0
   -0.4045   24.8814    6.3401 O   0  0  0  0  0  0  0  0  0  0  0  0
   -2.5577   24.6947    5.2523 C   0  0  0  0  0  0  0  0  0  0  0  0
   -2.8567   26.1108    5.1358 C   0  0  0  0  0  0  0  0  0  0  0  0
   -4.0460   26.5815    4.7116 C   0  0  0  0  0  0  0  0  0  0  0  0
   -4.4047   27.9118    4.5688 N   0  0  0  0  0  0  0  0  0  0  0  0
   -3.7820   29.0966    4.8836 C   0  0  0  0  0  0  0  0  0  0  0  0
   -4.3212   30.2879    4.5945 C   0  0  0  0  0  0  0  0  0  0  0  0
   -2.5708   29.0427    5.5334 O   0  0  0  0  0  0  0  0  0  0  0  0
   -5.0720   25.6055    4.3532 C   0  0  0  0  0  0  0  0  0  0  0  0
   -4.8788   24.2800    4.3671 C   0  0  0  0  0  0  0  0  0  0  0  0
   -3.5719   23.6975    4.7674 C   0  0  0  0  0  0  0  0  0  0  0  0
   -3.4238   22.4124    4.6602 N   0  0  0  0  0  0  0  0  0  0  0  0
  1  2  2  3
  2  3  1  0
  3  4  1  0
  4  5  1  0
  4  6  2  0
  6  7  1  0
  7  8  2  0
  8  9  1  0
  9 10  1  0
 10 11  2  3
 10 12  1  0
  8 13  1  0
 13 14  2  0
 14 15  1  0
 15 16  2  0
 16  2  1  0
 15  6  1  0
M  END
>  <Energy>  (106) 
-0.58724466953869481

>  <Energy_Delta>  (106) 
0.48980630905230615

>  <std_smi>  (106) 
CC(=O)Nc1ccc2nc(C)cc(O)c2c1

>  <enum_smi>  (106) 
C=C1CC(O)=c2cc(NC(=C)O)ccc2=N1

>  <enum_code>  (106) 
T

>  <parent_uuid>  (106) 
ea1addea-57d6-4931-9057-ca9db5b0445d

>  <o3da_score>  (106) 
85.839544772786283

>  <o3da_score_rel>  (106) 
0.34173969987254876

>  <o3da_align>  (106) 
0.41915217401799987

>  <RMSD>  (106) 
0.25176962828086485

>  <CONVERGED>  (106) 
0

>  <ENERGY>  (106) 
1.0394079090494635

$$$$
d7477b55-4a8e-4f75-a3df-c4e07bffb227
     RDKit          3D

 16 17  0  0  0  0  0  0  0  0999 V2000
   -3.1740   20.5886    3.3044 C   0  0  0  0  0  0  0  0  0  0  0  0
   -3.8060   21.6432    3.8402 C   0  0  0  0  0  0  0  0  0  0  0  0
   -5.3057   21.7919    3.7238 C   0  0  0  0  0  0  0  0  0  0  0  0
   -5.7663   23.2259    3.7788 C   0  0  0  0  0  0  0  0  0  0  0  0
   -7.0794   23.3967    3.3750 O   0  0  0  0  0  0  0  0  0  0  0  0
   -4.9585   24.2168    4.2044 C   0  0  0  0  0  0  0  0  0  0  0  0
   -5.2985   25.6253    4.3028 C   0  0  0  0  0  0  0  0  0  0  0  0
   -4.4744   26.5398    4.8512 C   0  0  0  0  0  0  0  0  0  0  0  0
   -4.7401   27.8862    4.9940 N   0  0  0  0  0  0  0  0  0  0  0  0
   -5.5875   28.7596    4.3738 C   0  0  0  0  0  0  0  0  0  0  0  0
   -6.1758   28.6240    3.1805 C   0  0  0  0  0  0  0  0  0  0  0  0
   -5.7594   29.9204    5.0918 O   0  0  0  0  0  0  0  0  0  0  0  0
   -3.2064   26.0788    5.4024 C   0  0  0  0  0  0  0  0  0  0  0  0
   -2.7745   24.8142    5.3146 C   0  0  0  0  0  0  0  0  0  0  0  0
   -3.5911   23.7687    4.6441 C   0  0  0  0  0  0  0  0  0  0  0  0
   -3.0641   22.5918    4.4963 N   0  0  0  0  0  0  0  0  0  0  0  0
  1  2  2  3
  2  3  1  0
  3  4  1  0
  4  5  1  0
  4  6  2  0
  6  7  1  0
  7  8  2  0
  8  9  1  0
  9 10  1  0
 10 11  2  3
 10 12  1  0
  8 13  1  0
 13 14  2  0
 14 15  1  0
 15 16  2  0
 16  2  1  0
 15  6  1  0
M  END
>  <Energy>  (107) 
1.0724444153331878

>  <Energy_Delta>  (107) 
2.1494953939241888

>  <std_smi>  (107) 
CC(=O)Nc1ccc2nc(C)cc(O)c2c1

>  <enum_smi>  (107) 
C=C1CC(O)=c2cc(NC(=C)O)ccc2=N1

>  <enum_code>  (107) 
T

>  <parent_uuid>  (107) 
ea1addea-57d6-4931-9057-ca9db5b0445d

>  <o3da_score>  (107) 
81.873202225673793

>  <o3da_score_rel>  (107) 
0.32594911389926823

>  <o3da_align>  (107) 
0.28717753137553031

>  <RMSD>  (107) 
0.098337336430891903

>  <CONVERGED>  (107) 
0

>  <ENERGY>  (107) 
1.6959706618415775

$$$$
d7477b55-4a8e-4f75-a3df-c4e07bffb227
     RDKit          3D

 16 17  0  0  0  0  0  0  0  0999 V2000
   -3.8246   20.3097    4.8382 C   0  0  0  0  0  0  0  0  0  0  0  0
   -4.0285   21.5478    4.3648 C   0  0  0  0  0  0  0  0  0  0  0  0
   -5.1836   21.8443    3.4361 C   0  0  0  0  0  0  0  0  0  0  0  0
   -5.6515   23.2751    3.5082 C   0  0  0  0  0  0  0  0  0  0  0  0
   -6.8792   23.4826    2.9030 O   0  0  0  0  0  0  0  0  0  0  0  0
   -4.9117   24.2368    4.0942 C   0  0  0  0  0  0  0  0  0  0  0  0
   -5.2612   25.6413    4.2149 C   0  0  0  0  0  0  0  0  0  0  0  0
   -4.4144   26.5656    4.7097 C   0  0  0  0  0  0  0  0  0  0  0  0
   -4.6726   27.9151    4.8350 N   0  0  0  0  0  0  0  0  0  0  0  0
   -5.8134   28.6627    4.9066 C   0  0  0  0  0  0  0  0  0  0  0  0
   -7.0446   28.2515    5.2286 C   0  0  0  0  0  0  0  0  0  0  0  0
   -5.5799   29.9974    4.6687 O   0  0  0  0  0  0  0  0  0  0  0  0
   -3.0784   26.1337    5.1007 C   0  0  0  0  0  0  0  0  0  0  0  0
   -2.6752   24.8567    5.0806 C   0  0  0  0  0  0  0  0  0  0  0  0
   -3.5854   23.7711    4.6309 C   0  0  0  0  0  0  0  0  0  0  0  0
   -3.1685   22.5470    4.7425 N   0  0  0  0  0  0  0  0  0  0  0  0
  1  2  2  3
  2  3  1  0
  3  4  1  0
  4  5  1  0
  4  6  2  0
  6  7  1  0
  7  8  2  0
  8  9  1  0
  9 10  1  0
 10 11  2  3
 10 12  1  0
  8 13  1  0
 13 14  2  0
 14 15  1  0
 15 16  2  0
 16  2  1  0
 15  6  1  0
M  END
>  <Energy>  (108) 
1.0724444156957125

>  <Energy_Delta>  (108) 
2.1494953942867134

>  <std_smi>  (108) 
CC(=O)Nc1ccc2nc(C)cc(O)c2c1

>  <enum_smi>  (108) 
C=C1CC(O)=c2cc(NC(=C)O)ccc2=N1

>  <enum_code>  (108) 
T

>  <parent_uuid>  (108) 
ea1addea-57d6-4931-9057-ca9db5b0445d

>  <o3da_score>  (108) 
83.459198242000923

>  <o3da_score_rel>  (108) 
0.33226319447895136

>  <o3da_align>  (108) 
0.20553075219705186

>  <RMSD>  (108) 
0.09833970481282793

>  <CONVERGED>  (108) 
0

>  <ENERGY>  (108) 
1.6959706618411343

$$$$
d7477b55-4a8e-4f75-a3df-c4e07bffb227
     RDKit          3D

 16 17  0  0  0  0  0  0  0  0999 V2000
    0.3283   32.4723   -0.8393 C   0  0  0  0  0  0  0  0  0  0  0  0
   -0.0064   32.0240    0.3796 C   0  0  0  0  0  0  0  0  0  0  0  0
    0.0094   32.9431    1.5795 C   0  0  0  0  0  0  0  0  0  0  0  0
   -0.9732   32.5360    2.6478 C   0  0  0  0  0  0  0  0  0  0  0  0
   -1.2087   33.5276    3.5843 O   0  0  0  0  0  0  0  0  0  0  0  0
   -1.5342   31.3110    2.6663 C   0  0  0  0  0  0  0  0  0  0  0  0
   -2.4881   30.8106    3.6405 C   0  0  0  0  0  0  0  0  0  0  0  0
   -2.9282   29.5355    3.6415 C   0  0  0  0  0  0  0  0  0  0  0  0
   -3.8378   29.0871    4.5799 N   0  0  0  0  0  0  0  0  0  0  0  0
   -4.7903   28.1067    4.5937 C   0  0  0  0  0  0  0  0  0  0  0  0
   -5.2546   27.3903    3.5642 C   0  0  0  0  0  0  0  0  0  0  0  0
   -5.3408   27.9355    5.8436 O   0  0  0  0  0  0  0  0  0  0  0  0
   -2.3483   28.6083    2.6818 C   0  0  0  0  0  0  0  0  0  0  0  0
   -1.5064   28.9785    1.7082 C   0  0  0  0  0  0  0  0  0  0  0  0
   -1.0802   30.3945    1.5612 C   0  0  0  0  0  0  0  0  0  0  0  0
   -0.3685   30.7090    0.5222 N   0  0  0  0  0  0  0  0  0  0  0  0
  1  2  2  3
  2  3  1  0
  3  4  1  0
  4  5  1  0
  4  6  2  0
  6  7  1  0
  7  8  2  0
  8  9  1  0
  9 10  1  0
 10 11  2  3
 10 12  1  0
  8 13  1  0
 13 14  2  0
 14 15  1  0
 15 16  2  0
 16  2  1  0
 15  6  1  0
M  END
>  <Energy>  (109) 
1.6457780951396308

>  <Energy_Delta>  (109) 
2.7228290737306318

>  <std_smi>  (109) 
CC(=O)Nc1ccc2nc(C)cc(O)c2c1

>  <enum_smi>  (109) 
C=C1CC(O)=c2cc(NC(=C)O)ccc2=N1

>  <enum_code>  (109) 
T

>  <parent_uuid>  (109) 
ea1addea-57d6-4931-9057-ca9db5b0445d

>  <o3da_score>  (109) 
102.36117289866108

>  <o3da_score_rel>  (109) 
0.40751470196613271

>  <o3da_align>  (109) 
0.26739656413739588

>  <RMSD>  (109) 
0.065562755101162121

>  <CONVERGED>  (109) 
0

>  <ENERGY>  (109) 
2.7455835189445099

$$$$
d7477b55-4a8e-4f75-a3df-c4e07bffb227
     RDKit          3D

 16 17  0  0  0  0  0  0  0  0999 V2000
   -3.3277   20.5733    3.3938 C   0  0  0  0  0  0  0  0  0  0  0  0
   -3.9053   21.6646    3.9171 C   0  0  0  0  0  0  0  0  0  0  0  0
   -5.4015   21.8663    3.8426 C   0  0  0  0  0  0  0  0  0  0  0  0
   -5.8016   23.3197    3.8353 C   0  0  0  0  0  0  0  0  0  0  0  0
   -7.1116   23.5269    3.4396 O   0  0  0  0  0  0  0  0  0  0  0  0
   -4.9449   24.2933    4.2013 C   0  0  0  0  0  0  0  0  0  0  0  0
   -5.2182   25.7194    4.2333 C   0  0  0  0  0  0  0  0  0  0  0  0
   -4.3331   26.6209    4.7062 C   0  0  0  0  0  0  0  0  0  0  0  0
   -4.6194   27.9724    4.7230 N   0  0  0  0  0  0  0  0  0  0  0  0
   -3.8621   29.1093    4.6688 C   0  0  0  0  0  0  0  0  0  0  0  0
   -2.5617   29.2237    4.3784 C   0  0  0  0  0  0  0  0  0  0  0  0
   -4.6116   30.2429    4.8872 O   0  0  0  0  0  0  0  0  0  0  0  0
   -3.0957   26.1267    5.2907 C   0  0  0  0  0  0  0  0  0  0  0  0
   -2.7230   24.8406    5.2609 C   0  0  0  0  0  0  0  0  0  0  0  0
   -3.5876   23.8066    4.6352 C   0  0  0  0  0  0  0  0  0  0  0  0
   -3.1116   22.6042    4.5239 N   0  0  0  0  0  0  0  0  0  0  0  0
  1  2  2  3
  2  3  1  0
  3  4  1  0
  4  5  1  0
  4  6  2  0
  6  7  1  0
  7  8  2  0
  8  9  1  0
  9 10  1  0
 10 11  2  3
 10 12  1  0
  8 13  1  0
 13 14  2  0
 14 15  1  0
 15 16  2  0
 16  2  1  0
 15  6  1  0
M  END
>  <Energy>  (110) 
2.7455835199783309

>  <Energy_Delta>  (110) 
3.8226344985693319

>  <std_smi>  (110) 
CC(=O)Nc1ccc2nc(C)cc(O)c2c1

>  <enum_smi>  (110) 
C=C1CC(O)=c2cc(NC(=C)O)ccc2=N1

>  <enum_code>  (110) 
T

>  <parent_uuid>  (110) 
ea1addea-57d6-4931-9057-ca9db5b0445d

>  <o3da_score>  (110) 
86.999073322114185

>  <o3da_score_rel>  (110) 
0.3463559515021426

>  <o3da_align>  (110) 
0.37876868304635797

>  <RMSD>  (110) 
6.788108145643247e-05

>  <CONVERGED>  (110) 
0

>  <ENERGY>  (110) 
2.7455835189438487

$$$$
d7477b55-4a8e-4f75-a3df-c4e07bffb227
     RDKit          3D

 16 17  0  0  0  0  0  0  0  0999 V2000
   -4.0376   20.3091    4.8403 C   0  0  0  0  0  0  0  0  0  0  0  0
   -4.1884   21.5629    4.3887 C   0  0  0  0  0  0  0  0  0  0  0  0
   -5.3588   21.9350    3.5081 C   0  0  0  0  0  0  0  0  0  0  0  0
   -5.7312   23.3925    3.5966 C   0  0  0  0  0  0  0  0  0  0  0  0
   -6.9587   23.6816    3.0254 O   0  0  0  0  0  0  0  0  0  0  0  0
   -4.9143   24.3035    4.1606 C   0  0  0  0  0  0  0  0  0  0  0  0
   -5.1742   25.7256    4.3008 C   0  0  0  0  0  0  0  0  0  0  0  0
   -4.2463   26.6040    4.7385 C   0  0  0  0  0  0  0  0  0  0  0  0
   -4.5497   27.9525    4.8650 N   0  0  0  0  0  0  0  0  0  0  0  0
   -3.7930   29.0911    5.0133 C   0  0  0  0  0  0  0  0  0  0  0  0
   -4.3435   30.2972    5.2022 C   0  0  0  0  0  0  0  0  0  0  0  0
   -2.4266   28.9798    4.9189 O   0  0  0  0  0  0  0  0  0  0  0  0
   -2.9416   26.0811    5.1155 C   0  0  0  0  0  0  0  0  0  0  0  0
   -2.6216   24.7804    5.0864 C   0  0  0  0  0  0  0  0  0  0  0  0
   -3.6039   23.7547    4.6532 C   0  0  0  0  0  0  0  0  0  0  0  0
   -3.2596   22.5066    4.7452 N   0  0  0  0  0  0  0  0  0  0  0  0
  1  2  2  3
  2  3  1  0
  3  4  1  0
  4  5  1  0
  4  6  2  0
  6  7  1  0
  7  8  2  0
  8  9  1  0
  9 10  1  0
 10 11  2  3
 10 12  1  0
  8 13  1  0
 13 14  2  0
 14 15  1  0
 15 16  2  0
 16  2  1  0
 15  6  1  0
M  END
>  <Energy>  (111) 
3.8418125025584478

>  <Energy_Delta>  (111) 
4.9188634811494492

>  <std_smi>  (111) 
CC(=O)Nc1ccc2nc(C)cc(O)c2c1

>  <enum_smi>  (111) 
C=C1CC(O)=c2cc(NC(=C)O)ccc2=N1

>  <enum_code>  (111) 
T

>  <parent_uuid>  (111) 
ea1addea-57d6-4931-9057-ca9db5b0445d

>  <o3da_score>  (111) 
84.37665010238257

>  <o3da_score_rel>  (111) 
0.33591570363710493

>  <o3da_align>  (111) 
0.13540607892180823

>  <RMSD>  (111) 
7.4979515950502335e-05

>  <CONVERGED>  (111) 
0

>  <ENERGY>  (111) 
3.841812502250666

$$$$
9972a2da-79da-4b53-89af-5b5a091ee4f6
     RDKit          3D

 16 17  0  0  0  0  0  0  0  0999 V2000
   -7.7657   27.6289    2.8199 C   0  0  0  0  0  0  0  0  0  0  0  0
   -6.7954   27.2836    3.6791 C   0  0  0  0  0  0  0  0  0  0  0  0
   -6.0801   28.3310    4.5020 C   0  0  0  0  0  0  0  0  0  0  0  0
   -4.6907   27.9188    4.9144 C   0  0  0  0  0  0  0  0  0  0  0  0
   -3.9281   28.9685    5.3975 O   0  0  0  0  0  0  0  0  0  0  0  0
   -4.2728   26.6408    4.8278 C   0  0  0  0  0  0  0  0  0  0  0  0
   -2.9674   26.1335    5.2159 C   0  0  0  0  0  0  0  0  0  0  0  0
   -2.6792   24.8201    5.2108 C   0  0  0  0  0  0  0  0  0  0  0  0
   -1.4615   24.2772    5.5691 N   0  0  0  0  0  0  0  0  0  0  0  0
   -0.3273   24.9324    6.0226 C   0  0  0  0  0  0  0  0  0  0  0  0
    0.8104   23.9838    6.3071 C   0  0  0  0  0  0  0  0  0  0  0  0
   -0.2087   26.1372    6.2180 O   0  0  0  0  0  0  0  0  0  0  0  0
   -3.7001   23.8681    4.8065 C   0  0  0  0  0  0  0  0  0  0  0  0
   -4.9162   24.2392    4.3845 C   0  0  0  0  0  0  0  0  0  0  0  0
   -5.3014   25.6746    4.3049 C   0  0  0  0  0  0  0  0  0  0  0  0
   -6.4600   25.9587    3.7943 N   0  0  0  0  0  0  0  0  0  0  0  0
  1  2  2  3
  2  3  1  0
  3  4  1  0
  4  5  1  0
  4  6  2  0
  6  7  1  0
  7  8  2  0
  8  9  1  0
  9 10  1  0
 10 11  1  0
 10 12  2  0
  8 13  1  0
 13 14  2  0
 14 15  1  0
 15 16  2  0
 16  2  1  0
 15  6  1  0
M  END
>  <Energy>  (112) 
30.658015294309948

>  <Energy_Delta>  (112) 
0

>  <std_smi>  (112) 
CC(=O)Nc1ccc2nc(C)cc(O)c2c1

>  <enum_smi>  (112) 
C=C1CC(O)=c2cc(NC(C)=O)ccc2=N1

>  <enum_code>  (112) 
T

>  <parent_uuid>  (112) 
ea1addea-57d6-4931-9057-ca9db5b0445d

>  <o3da_score>  (112) 
79.349210485187626

>  <o3da_score_rel>  (112) 
0.31590073605479502

>  <o3da_align>  (112) 
0.22291098111494642

>  <RMSD>  (112) 
7.2075793784662855e-05

>  <CONVERGED>  (112) 
0

>  <ENERGY>  (112) 
30.658015293495133

$$$$
9972a2da-79da-4b53-89af-5b5a091ee4f6
     RDKit          3D

 16 17  0  0  0  0  0  0  0  0999 V2000
   -5.7367   23.6394    3.7655 C   0  0  0  0  0  0  0  0  0  0  0  0
   -4.7850   24.5845    3.7613 C   0  0  0  0  0  0  0  0  0  0  0  0
   -3.5583   24.4449    2.8886 C   0  0  0  0  0  0  0  0  0  0  0  0
   -2.9316   25.7660    2.5246 C   0  0  0  0  0  0  0  0  0  0  0  0
   -2.0092   25.6700    1.4966 O   0  0  0  0  0  0  0  0  0  0  0  0
   -3.2466   26.9051    3.1715 C   0  0  0  0  0  0  0  0  0  0  0  0
   -2.6860   28.2220    2.9192 C   0  0  0  0  0  0  0  0  0  0  0  0
   -2.9719   29.2827    3.6947 C   0  0  0  0  0  0  0  0  0  0  0  0
   -2.4708   30.5555    3.5086 N   0  0  0  0  0  0  0  0  0  0  0  0
   -1.5940   31.0011    2.5319 C   0  0  0  0  0  0  0  0  0  0  0  0
   -1.2955   32.4742    2.6573 C   0  0  0  0  0  0  0  0  0  0  0  0
   -1.1014   30.3309    1.6309 O   0  0  0  0  0  0  0  0  0  0  0  0
   -3.8666   29.1165    4.8278 C   0  0  0  0  0  0  0  0  0  0  0  0
   -4.4698   27.9554    5.1157 C   0  0  0  0  0  0  0  0  0  0  0  0
   -4.2550   26.7447    4.2772 C   0  0  0  0  0  0  0  0  0  0  0  0
   -4.9487   25.6857    4.5623 N   0  0  0  0  0  0  0  0  0  0  0  0
  1  2  2  3
  2  3  1  0
  3  4  1  0
  4  5  1  0
  4  6  2  0
  6  7  1  0
  7  8  2  0
  8  9  1  0
  9 10  1  0
 10 11  1  0
 10 12  2  0
  8 13  1  0
 13 14  2  0
 14 15  1  0
 15 16  2  0
 16  2  1  0
 15  6  1  0
M  END
>  <Energy>  (113) 
30.658015299390303

>  <Energy_Delta>  (113) 
5.0803556916889647e-09

>  <std_smi>  (113) 
CC(=O)Nc1ccc2nc(C)cc(O)c2c1

>  <enum_smi>  (113) 
C=C1CC(O)=c2cc(NC(C)=O)ccc2=N1

>  <enum_code>  (113) 
T

>  <parent_uuid>  (113) 
ea1addea-57d6-4931-9057-ca9db5b0445d

>  <o3da_score>  (113) 
81.051536404165489

>  <o3da_score_rel>  (113) 
0.32267794287918611

>  <o3da_align>  (113) 
0.38529588580940621

>  <RMSD>  (113) 
0.013150138218984095

>  <CONVERGED>  (113) 
0

>  <ENERGY>  (113) 
30.670845019755262

$$$$
9972a2da-79da-4b53-89af-5b5a091ee4f6
     RDKit          3D

 16 17  0  0  0  0  0  0  0  0999 V2000
   -2.0560   20.7300    5.5366 C   0  0  0  0  0  0  0  0  0  0  0  0
   -2.1310   22.0168    5.1665 C   0  0  0  0  0  0  0  0  0  0  0  0
   -0.9575   22.9498    5.3552 C   0  0  0  0  0  0  0  0  0  0  0  0
   -1.3656   24.3930    5.5092 C   0  0  0  0  0  0  0  0  0  0  0  0
   -0.3469   25.2038    5.9785 O   0  0  0  0  0  0  0  0  0  0  0  0
   -2.6033   24.8202    5.1910 C   0  0  0  0  0  0  0  0  0  0  0  0
   -3.1051   26.1796    5.3064 C   0  0  0  0  0  0  0  0  0  0  0  0
   -4.3169   26.5402    4.8391 C   0  0  0  0  0  0  0  0  0  0  0  0
   -4.7271   27.8498    4.9981 N   0  0  0  0  0  0  0  0  0  0  0  0
   -5.9207   28.4471    4.6237 C   0  0  0  0  0  0  0  0  0  0  0  0
   -5.9653   29.9086    4.9961 C   0  0  0  0  0  0  0  0  0  0  0  0
   -6.8752   27.9107    4.0745 O   0  0  0  0  0  0  0  0  0  0  0  0
   -5.1453   25.5473    4.1831 C   0  0  0  0  0  0  0  0  0  0  0  0
   -4.7993   24.2560    4.0860 C   0  0  0  0  0  0  0  0  0  0  0  0
   -3.5156   23.7549    4.6430 C   0  0  0  0  0  0  0  0  0  0  0  0
   -3.2987   22.4759    4.6134 N   0  0  0  0  0  0  0  0  0  0  0  0
  1  2  2  3
  2  3  1  0
  3  4  1  0
  4  5  1  0
  4  6  2  0
  6  7  1  0
  7  8  2  0
  8  9  1  0
  9 10  1  0
 10 11  1  0
 10 12  2  0
  8 13  1  0
 13 14  2  0
 14 15  1  0
 15 16  2  0
 16  2  1  0
 15  6  1  0
M  END
>  <Energy>  (114) 
31.468449145782216

>  <Energy_Delta>  (114) 
0.81043385147226843

>  <std_smi>  (114) 
CC(=O)Nc1ccc2nc(C)cc(O)c2c1

>  <enum_smi>  (114) 
C=C1CC(O)=c2cc(NC(C)=O)ccc2=N1

>  <enum_code>  (114) 
T

>  <parent_uuid>  (114) 
ea1addea-57d6-4931-9057-ca9db5b0445d

>  <o3da_score>  (114) 
84.938439353081236

>  <o3da_score_rel>  (114) 
0.33815226826979916

>  <o3da_align>  (114) 
0.16799903498845351

>  <RMSD>  (114) 
0.08616960962968552

>  <CONVERGED>  (114) 
0

>  <ENERGY>  (114) 
34.133071024404686

$$$$
9972a2da-79da-4b53-89af-5b5a091ee4f6
     RDKit          3D

 16 17  0  0  0  0  0  0  0  0999 V2000
    0.3756   32.4216   -0.8081 C   0  0  0  0  0  0  0  0  0  0  0  0
   -0.0024   31.9944    0.4057 C   0  0  0  0  0  0  0  0  0  0  0  0
   -0.0265   32.9349    1.5882 C   0  0  0  0  0  0  0  0  0  0  0  0
   -1.0233   32.5334    2.6455 C   0  0  0  0  0  0  0  0  0  0  0  0
   -1.2690   33.5297    3.5743 O   0  0  0  0  0  0  0  0  0  0  0  0
   -1.5842   31.3083    2.6662 C   0  0  0  0  0  0  0  0  0  0  0  0
   -2.5578   30.8195    3.6285 C   0  0  0  0  0  0  0  0  0  0  0  0
   -2.9633   29.5342    3.6507 C   0  0  0  0  0  0  0  0  0  0  0  0
   -3.9024   29.1504    4.5885 N   0  0  0  0  0  0  0  0  0  0  0  0
   -4.4633   27.9021    4.8091 C   0  0  0  0  0  0  0  0  0  0  0  0
   -5.4640   27.9216    5.9382 C   0  0  0  0  0  0  0  0  0  0  0  0
   -4.2085   26.8617    4.2148 O   0  0  0  0  0  0  0  0  0  0  0  0
   -2.4037   28.6003    2.6930 C   0  0  0  0  0  0  0  0  0  0  0  0
   -1.5508   28.9681    1.7266 C   0  0  0  0  0  0  0  0  0  0  0  0
   -1.1079   30.3794    1.5812 C   0  0  0  0  0  0  0  0  0  0  0  0
   -0.3723   30.6827    0.5562 N   0  0  0  0  0  0  0  0  0  0  0  0
  1  2  2  3
  2  3  1  0
  3  4  1  0
  4  5  1  0
  4  6  2  0
  6  7  1  0
  7  8  2  0
  8  9  1  0
  9 10  1  0
 10 11  1  0
 10 12  2  0
  8 13  1  0
 13 14  2  0
 14 15  1  0
 15 16  2  0
 16  2  1  0
 15  6  1  0
M  END
>  <Energy>  (115) 
34.133071333889802

>  <Energy_Delta>  (115) 
3.4750560395798544

>  <std_smi>  (115) 
CC(=O)Nc1ccc2nc(C)cc(O)c2c1

>  <enum_smi>  (115) 
C=C1CC(O)=c2cc(NC(C)=O)ccc2=N1

>  <enum_code>  (115) 
T

>  <parent_uuid>  (115) 
ea1addea-57d6-4931-9057-ca9db5b0445d

>  <o3da_score>  (115) 
106.07727619301853

>  <o3da_score_rel>  (115) 
0.4223090491154633

>  <o3da_align>  (115) 
0.33147813363896678

>  <RMSD>  (115) 
0.019201379626934231

>  <CONVERGED>  (115) 
0

>  <ENERGY>  (115) 
34.134251808561707

$$$$
c0317c04-c085-4876-8f8b-36250f60fa69
     RDKit          3D

 16 17  0  0  0  0  0  0  0  0999 V2000
    0.4239   30.5326   -1.5952 C   0  0  0  0  0  0  0  0  0  0  0  0
   -0.0588   29.9746   -0.4768 C   0  0  0  0  0  0  0  0  0  0  0  0
   -0.2096   28.4793   -0.3362 C   0  0  0  0  0  0  0  0  0  0  0  0
   -1.5883   28.1338    0.2242 C   0  0  2  0  0  0  0  0  0  0  0  0
   -2.5723   28.2480   -0.8065 O   0  0  0  0  0  0  0  0  0  0  0  0
   -1.9540   29.0116    1.3837 C   0  0  0  0  0  0  0  0  0  0  0  0
   -2.7913   28.6271    2.3588 C   0  0  0  0  0  0  0  0  0  0  0  0
   -3.1274   29.4929    3.5219 C   0  0  0  0  0  0  0  0  0  0  0  0
   -3.9165   29.2413    4.5174 N   0  0  0  0  0  0  0  0  0  0  0  0
   -4.5417   28.0283    4.6491 C   0  0  0  0  0  0  0  0  0  0  0  0
   -5.8888   28.1325    5.3134 C   0  0  0  0  0  0  0  0  0  0  0  0
   -4.0731   26.9412    4.3264 O   0  0  0  0  0  0  0  0  0  0  0  0
   -2.4815   30.8292    3.5210 C   0  0  0  0  0  0  0  0  0  0  0  0
   -1.6330   31.2145    2.5663 C   0  0  0  0  0  0  0  0  0  0  0  0
   -1.2739   30.3361    1.4317 C   0  0  0  0  0  0  0  0  0  0  0  0
   -0.4029   30.7796    0.5789 N   0  0  0  0  0  0  0  0  0  0  0  0
  1  2  2  3
  2  3  1  0
  3  4  1  0
  4  5  1  6
  4  6  1  0
  6  7  2  0
  7  8  1  0
  8  9  2  3
  9 10  1  0
 10 11  1  0
 10 12  2  0
  8 13  1  0
 13 14  2  0
 14 15  1  0
 15 16  2  0
 16  2  1  0
 15  6  1  0
M  END
>  <Energy>  (116) 
-7.7733750318874897

>  <Energy_Delta>  (116) 
0

>  <std_smi>  (116) 
CC(=O)Nc1ccc2nc(C)cc(O)c2c1

>  <enum_smi>  (116) 
C=C1CC(O)C2=CC(=NC(C)=O)C=CC2=N1

>  <enum_code>  (116) 
T

>  <parent_uuid>  (116) 
ea1addea-57d6-4931-9057-ca9db5b0445d

>  <o3da_score>  (116) 
74.642837412992662

>  <o3da_score_rel>  (116) 
0.29716398103777575

>  <o3da_align>  (116) 
0.36784215287377547

>  <RMSD>  (116) 
0.075075055070563099

>  <CONVERGED>  (116) 
0

>  <ENERGY>  (116) 
-4.9874363225878247

$$$$
c0317c04-c085-4876-8f8b-36250f60fa69
     RDKit          3D

 16 17  0  0  0  0  0  0  0  0999 V2000
   -4.8795   25.9952    4.1865 C   0  0  0  0  0  0  0  0  0  0  0  0
   -3.7885   26.6336    3.7429 C   0  0  0  0  0  0  0  0  0  0  0  0
   -2.5811   25.8829    3.2352 C   0  0  0  0  0  0  0  0  0  0  0  0
   -2.1074   26.4877    1.9142 C   0  0  1  0  0  0  0  0  0  0  0  0
   -2.9778   26.1118    0.8442 O   0  0  0  0  0  0  0  0  0  0  0  0
   -2.0361   27.9806    1.9815 C   0  0  0  0  0  0  0  0  0  0  0  0
   -1.1968   28.7147    1.2396 C   0  0  0  0  0  0  0  0  0  0  0  0
   -1.1237   30.1968    1.3180 C   0  0  0  0  0  0  0  0  0  0  0  0
   -0.2616   30.7703    0.5399 N   0  0  0  0  0  0  0  0  0  0  0  0
   -0.0905   32.1303    0.5646 C   0  0  0  0  0  0  0  0  0  0  0  0
    0.1429   32.7203   -0.8003 C   0  0  0  0  0  0  0  0  0  0  0  0
   -0.0639   32.8256    1.5751 O   0  0  0  0  0  0  0  0  0  0  0  0
   -2.0728   30.8284    2.2719 C   0  0  0  0  0  0  0  0  0  0  0  0
   -2.9040   30.1025    3.0249 C   0  0  0  0  0  0  0  0  0  0  0  0
   -2.9440   28.6248    2.9672 C   0  0  0  0  0  0  0  0  0  0  0  0
   -3.7598   28.0044    3.7637 N   0  0  0  0  0  0  0  0  0  0  0  0
  1  2  2  3
  2  3  1  0
  3  4  1  0
  4  5  1  6
  4  6  1  0
  6  7  2  0
  7  8  1  0
  8  9  2  3
  9 10  1  0
 10 11  1  0
 10 12  2  0
  8 13  1  0
 13 14  2  0
 14 15  1  0
 15 16  2  0
 16  2  1  0
 15  6  1  0
M  END
>  <Energy>  (117) 
-7.6232975487675896

>  <Energy_Delta>  (117) 
0.1500774831199001

>  <std_smi>  (117) 
CC(=O)Nc1ccc2nc(C)cc(O)c2c1

>  <enum_smi>  (117) 
C=C1CC(O)C2=CC(=NC(C)=O)C=CC2=N1

>  <enum_code>  (117) 
T

>  <parent_uuid>  (117) 
ea1addea-57d6-4931-9057-ca9db5b0445d

>  <o3da_score>  (117) 
77.255045352527389

>  <o3da_score_rel>  (117) 
0.30756356038811145

>  <o3da_align>  (117) 
0.56162539869438999

>  <RMSD>  (117) 
7.1574035757205563e-05

>  <CONVERGED>  (117) 
0

>  <ENERGY>  (117) 
-7.6232975488869315

$$$$
c0317c04-c085-4876-8f8b-36250f60fa69
     RDKit          3D

 16 17  0  0  0  0  0  0  0  0999 V2000
   -5.2919   27.4856    5.4865 C   0  0  0  0  0  0  0  0  0  0  0  0
   -4.2899   27.7449    4.6360 C   0  0  0  0  0  0  0  0  0  0  0  0
   -3.8975   26.7711    3.5514 C   0  0  0  0  0  0  0  0  0  0  0  0
   -3.7309   27.5075    2.2228 C   0  0  1  0  0  0  0  0  0  0  0  0
   -5.0047   27.8388    1.6657 O   0  0  0  0  0  0  0  0  0  0  0  0
   -2.9251   28.7587    2.3785 C   0  0  0  0  0  0  0  0  0  0  0  0
   -2.1890   29.2914    1.3946 C   0  0  0  0  0  0  0  0  0  0  0  0
   -1.3870   30.5322    1.5562 C   0  0  0  0  0  0  0  0  0  0  0  0
   -0.7072   30.9131    0.5216 N   0  0  0  0  0  0  0  0  0  0  0  0
    0.0344   32.0659    0.5511 C   0  0  0  0  0  0  0  0  0  0  0  0
    1.3307   31.9513   -0.2055 C   0  0  0  0  0  0  0  0  0  0  0  0
   -0.3079   33.1210    1.0753 O   0  0  0  0  0  0  0  0  0  0  0  0
   -1.4603   31.1629    2.9002 C   0  0  0  0  0  0  0  0  0  0  0  0
   -2.1818   30.6309    3.8908 C   0  0  0  0  0  0  0  0  0  0  0  0
   -2.9533   29.3791    3.7296 C   0  0  0  0  0  0  0  0  0  0  0  0
   -3.5916   28.9183    4.7615 N   0  0  0  0  0  0  0  0  0  0  0  0
  1  2  2  3
  2  3  1  0
  3  4  1  0
  4  5  1  1
  4  6  1  0
  6  7  2  0
  7  8  1  0
  8  9  2  3
  9 10  1  0
 10 11  1  0
 10 12  2  0
  8 13  1  0
 13 14  2  0
 14 15  1  0
 15 16  2  0
 16  2  1  0
 15  6  1  0
M  END
>  <Energy>  (118) 
-7.4594487513075638

>  <Energy_Delta>  (118) 
0.31392628057992589

>  <std_smi>  (118) 
CC(=O)Nc1ccc2nc(C)cc(O)c2c1

>  <enum_smi>  (118) 
C=C1CC(O)C2=CC(=NC(C)=O)C=CC2=N1

>  <enum_code>  (118) 
T

>  <parent_uuid>  (118) 
ea1addea-57d6-4931-9057-ca9db5b0445d

>  <o3da_score>  (118) 
91.823704057890524

>  <o3da_score_rel>  (118) 
0.36556350746023047

>  <o3da_align>  (118) 
0.41541035070848376

>  <RMSD>  (118) 
6.330002050156348e-05

>  <CONVERGED>  (118) 
0

>  <ENERGY>  (118) 
-7.4594487516705037

$$$$
c0317c04-c085-4876-8f8b-36250f60fa69
     RDKit          3D

 16 17  0  0  0  0  0  0  0  0999 V2000
    1.0786   32.2468   -0.3329 C   0  0  0  0  0  0  0  0  0  0  0  0
   -0.0150   32.0189    0.4065 C   0  0  0  0  0  0  0  0  0  0  0  0
   -0.6739   33.1155    1.2079 C   0  0  0  0  0  0  0  0  0  0  0  0
   -0.9751   32.6207    2.6220 C   0  0  2  0  0  0  0  0  0  0  0  0
    0.2199   32.5681    3.4041 O   0  0  0  0  0  0  0  0  0  0  0  0
   -1.6133   31.2673    2.6127 C   0  0  0  0  0  0  0  0  0  0  0  0
   -2.4392   30.8326    3.5732 C   0  0  0  0  0  0  0  0  0  0  0  0
   -3.0738   29.4887    3.5567 C   0  0  0  0  0  0  0  0  0  0  0  0
   -3.8681   29.2187    4.5434 N   0  0  0  0  0  0  0  0  0  0  0  0
   -4.4735   27.9928    4.6455 C   0  0  0  0  0  0  0  0  0  0  0  0
   -5.8792   28.0732    5.1779 C   0  0  0  0  0  0  0  0  0  0  0  0
   -3.9455   26.9137    4.3971 O   0  0  0  0  0  0  0  0  0  0  0  0
   -2.7217   28.6368    2.3906 C   0  0  0  0  0  0  0  0  0  0  0  0
   -1.9090   29.0675    1.4218 C   0  0  0  0  0  0  0  0  0  0  0  0
   -1.3054   30.4181    1.4316 C   0  0  0  0  0  0  0  0  0  0  0  0
   -0.5605   30.7610    0.4256 N   0  0  0  0  0  0  0  0  0  0  0  0
  1  2  2  3
  2  3  1  0
  3  4  1  0
  4  5  1  1
  4  6  1  0
  6  7  2  0
  7  8  1  0
  8  9  2  3
  9 10  1  0
 10 11  1  0
 10 12  2  0
  8 13  1  0
 13 14  2  0
 14 15  1  0
 15 16  2  0
 16  2  1  0
 15  6  1  0
M  END
>  <Energy>  (119) 
-7.4594487511301182

>  <Energy_Delta>  (119) 
0.3139262807573715

>  <std_smi>  (119) 
CC(=O)Nc1ccc2nc(C)cc(O)c2c1

>  <enum_smi>  (119) 
C=C1CC(O)C2=CC(=NC(C)=O)C=CC2=N1

>  <enum_code>  (119) 
T

>  <parent_uuid>  (119) 
ea1addea-57d6-4931-9057-ca9db5b0445d

>  <o3da_score>  (119) 
107.48049458744188

>  <o3da_score_rel>  (119) 
0.42789546542551232

>  <o3da_align>  (119) 
0.34746679100279831

>  <RMSD>  (119) 
6.5551669737421036e-05

>  <CONVERGED>  (119) 
0

>  <ENERGY>  (119) 
-7.4594487516778489

$$$$
c0317c04-c085-4876-8f8b-36250f60fa69
     RDKit          3D

 16 17  0  0  0  0  0  0  0  0999 V2000
    0.5653   32.4601   -0.7134 C   0  0  0  0  0  0  0  0  0  0  0  0
    0.1011   31.9891    0.4512 C   0  0  0  0  0  0  0  0  0  0  0  0
    0.1305   32.8140    1.7091 C   0  0  0  0  0  0  0  0  0  0  0  0
   -1.2380   32.7547    2.3820 C   0  0  2  0  0  0  0  0  0  0  0  0
   -1.1783   33.4045    3.6539 O   0  0  0  0  0  0  0  0  0  0  0  0
   -1.7086   31.3362    2.5271 C   0  0  0  0  0  0  0  0  0  0  0  0
   -2.4990   30.8876    3.5119 C   0  0  0  0  0  0  0  0  0  0  0  0
   -2.9620   29.4789    3.6147 C   0  0  0  0  0  0  0  0  0  0  0  0
   -3.6896   29.1890    4.6463 N   0  0  0  0  0  0  0  0  0  0  0  0
   -4.2026   27.9290    4.8155 C   0  0  0  0  0  0  0  0  0  0  0  0
   -4.2089   27.4842    6.2535 C   0  0  0  0  0  0  0  0  0  0  0  0
   -4.6727   27.2251    3.9274 O   0  0  0  0  0  0  0  0  0  0  0  0
   -2.5118   28.5832    2.5180 C   0  0  0  0  0  0  0  0  0  0  0  0
   -1.7172   29.0163    1.5356 C   0  0  0  0  0  0  0  0  0  0  0  0
   -1.2191   30.4077    1.4686 C   0  0  0  0  0  0  0  0  0  0  0  0
   -0.3978   30.7129    0.5103 N   0  0  0  0  0  0  0  0  0  0  0  0
  1  2  2  3
  2  3  1  0
  3  4  1  0
  4  5  1  1
  4  6  1  0
  6  7  2  0
  7  8  1  0
  8  9  2  3
  9 10  1  0
 10 11  1  0
 10 12  2  0
  8 13  1  0
 13 14  2  0
 14 15  1  0
 15 16  2  0
 16  2  1  0
 15  6  1  0
M  END
>  <Energy>  (120) 
-7.4141011373864165

>  <Energy_Delta>  (120) 
0.35927389450107317

>  <std_smi>  (120) 
CC(=O)Nc1ccc2nc(C)cc(O)c2c1

>  <enum_smi>  (120) 
C=C1CC(O)C2=CC(=NC(C)=O)C=CC2=N1

>  <enum_code>  (120) 
T

>  <parent_uuid>  (120) 
ea1addea-57d6-4931-9057-ca9db5b0445d

>  <o3da_score>  (120) 
107.30927360996226

>  <o3da_score_rel>  (120) 
0.42721380983646356

>  <o3da_align>  (120) 
0.28791693353853598

>  <RMSD>  (120) 
0.04720034195576759

>  <CONVERGED>  (120) 
0

>  <ENERGY>  (120) 
-6.8935402972848188

$$$$
c0317c04-c085-4876-8f8b-36250f60fa69
     RDKit          3D

 16 17  0  0  0  0  0  0  0  0999 V2000
    1.2073   32.2090   -0.2994 C   0  0  0  0  0  0  0  0  0  0  0  0
    0.0980   32.0206    0.4273 C   0  0  0  0  0  0  0  0  0  0  0  0
   -0.4782   33.1105    1.2936 C   0  0  0  0  0  0  0  0  0  0  0  0
   -0.7757   32.5309    2.6718 C   0  0  1  0  0  0  0  0  0  0  0  0
   -1.3984   33.5326    3.4752 O   0  0  0  0  0  0  0  0  0  0  0  0
   -1.6466   31.3144    2.5429 C   0  0  0  0  0  0  0  0  0  0  0  0
   -2.6160   30.9522    3.3940 C   0  0  0  0  0  0  0  0  0  0  0  0
   -3.4292   29.7177    3.2335 C   0  0  0  0  0  0  0  0  0  0  0  0
   -4.3390   29.5117    4.1324 N   0  0  0  0  0  0  0  0  0  0  0  0
   -5.1691   28.4226    4.0604 C   0  0  0  0  0  0  0  0  0  0  0  0
   -5.5160   27.8583    5.4123 C   0  0  0  0  0  0  0  0  0  0  0  0
   -5.6499   27.9565    3.0325 O   0  0  0  0  0  0  0  0  0  0  0  0
   -3.0611   28.8626    2.0758 C   0  0  0  0  0  0  0  0  0  0  0  0
   -2.1127   29.2234    1.2073 C   0  0  0  0  0  0  0  0  0  0  0  0
   -1.3702   30.4972    1.3251 C   0  0  0  0  0  0  0  0  0  0  0  0
   -0.5457   30.8098    0.3714 N   0  0  0  0  0  0  0  0  0  0  0  0
  1  2  2  3
  2  3  1  0
  3  4  1  0
  4  5  1  1
  4  6  1  0
  6  7  2  0
  7  8  1  0
  8  9  2  3
  9 10  1  0
 10 11  1  0
 10 12  2  0
  8 13  1  0
 13 14  2  0
 14 15  1  0
 15 16  2  0
 16  2  1  0
 15  6  1  0
M  END
>  <Energy>  (121) 
-7.2462865626585504

>  <Energy_Delta>  (121) 
0.52708846922893926

>  <std_smi>  (121) 
CC(=O)Nc1ccc2nc(C)cc(O)c2c1

>  <enum_smi>  (121) 
C=C1CC(O)C2=CC(=NC(C)=O)C=CC2=N1

>  <enum_code>  (121) 
T

>  <parent_uuid>  (121) 
ea1addea-57d6-4931-9057-ca9db5b0445d

>  <o3da_score>  (121) 
96.749063924220494

>  <o3da_score_rel>  (121) 
0.38517208072257986

>  <o3da_align>  (121) 
0.50634429361214905

>  <RMSD>  (121) 
0.021422678106287261

>  <CONVERGED>  (121) 
0

>  <ENERGY>  (121) 
-6.024107935625076

$$$$
c0317c04-c085-4876-8f8b-36250f60fa69
     RDKit          3D

 16 17  0  0  0  0  0  0  0  0999 V2000
   -1.5795   24.2646    5.5190 C   0  0  0  0  0  0  0  0  0  0  0  0
   -2.8396   24.6707    5.3162 C   0  0  0  0  0  0  0  0  0  0  0  0
   -3.2969   26.0536    5.6958 C   0  0  0  0  0  0  0  0  0  0  0  0
   -4.0692   26.6613    4.5292 C   0  0  2  0  0  0  0  0  0  0  0  0
   -4.6074   27.9269    4.9149 O   0  0  0  0  0  0  0  0  0  0  0  0
   -5.1499   25.7287    4.0600 C   0  0  0  0  0  0  0  0  0  0  0  0
   -6.3324   26.1141    3.5574 C   0  0  0  0  0  0  0  0  0  0  0  0
   -7.3656   25.1473    3.0971 C   0  0  0  0  0  0  0  0  0  0  0  0
   -8.5531   25.3971    2.6439 N   0  0  0  0  0  0  0  0  0  0  0  0
   -9.0286   26.6829    2.6216 C   0  0  0  0  0  0  0  0  0  0  0  0
   -9.7902   27.0128    1.3664 C   0  0  0  0  0  0  0  0  0  0  0  0
   -8.9173   27.4922    3.5371 O   0  0  0  0  0  0  0  0  0  0  0  0
   -6.9636   23.7199    3.1448 C   0  0  0  0  0  0  0  0  0  0  0  0
   -5.7947   23.3231    3.6514 C   0  0  0  0  0  0  0  0  0  0  0  0
   -4.8133   24.2821    4.2031 C   0  0  0  0  0  0  0  0  0  0  0  0
   -3.7455   23.8011    4.7638 N   0  0  0  0  0  0  0  0  0  0  0  0
  1  2  2  3
  2  3  1  0
  3  4  1  0
  4  5  1  1
  4  6  1  0
  6  7  2  0
  7  8  1  0
  8  9  2  3
  9 10  1  0
 10 11  1  0
 10 12  2  0
  8 13  1  0
 13 14  2  0
 14 15  1  0
 15 16  2  0
 16  2  1  0
 15  6  1  0
M  END
>  <Energy>  (122) 
-7.1609650970069243

>  <Energy_Delta>  (122) 
0.61240993488056539

>  <std_smi>  (122) 
CC(=O)Nc1ccc2nc(C)cc(O)c2c1

>  <enum_smi>  (122) 
C=C1CC(O)C2=CC(=NC(C)=O)C=CC2=N1

>  <enum_code>  (122) 
T

>  <parent_uuid>  (122) 
ea1addea-57d6-4931-9057-ca9db5b0445d

>  <o3da_score>  (122) 
75.879463101534967

>  <o3da_score_rel>  (122) 
0.30208716758047871

>  <o3da_align>  (122) 
0.23760066789086762

>  <RMSD>  (122) 
6.3676956225774145e-05

>  <CONVERGED>  (122) 
0

>  <ENERGY>  (122) 
-7.1609650970470495

$$$$
c0317c04-c085-4876-8f8b-36250f60fa69
     RDKit          3D

 16 17  0  0  0  0  0  0  0  0999 V2000
   -3.4751   20.4289    3.8480 C   0  0  0  0  0  0  0  0  0  0  0  0
   -4.0006   21.6145    4.1831 C   0  0  0  0  0  0  0  0  0  0  0  0
   -5.4743   21.8922    4.0551 C   0  0  0  0  0  0  0  0  0  0  0  0
   -5.6702   23.2324    3.3534 C   0  0  1  0  0  0  0  0  0  0  0  0
   -7.0592   23.5639    3.3270 O   0  0  0  0  0  0  0  0  0  0  0  0
   -4.8648   24.3093    4.0237 C   0  0  0  0  0  0  0  0  0  0  0  0
   -5.2289   25.5973    4.1143 C   0  0  0  0  0  0  0  0  0  0  0  0
   -4.3875   26.6273    4.7815 C   0  0  0  0  0  0  0  0  0  0  0  0
   -4.6541   27.8805    4.9725 N   0  0  0  0  0  0  0  0  0  0  0  0
   -5.8750   28.3905    4.6134 C   0  0  0  0  0  0  0  0  0  0  0  0
   -5.7858   29.7487    3.9717 C   0  0  0  0  0  0  0  0  0  0  0  0
   -6.9560   27.8523    4.8308 O   0  0  0  0  0  0  0  0  0  0  0  0
   -3.0672   26.1519    5.2631 C   0  0  0  0  0  0  0  0  0  0  0  0
   -2.6974   24.8721    5.1880 C   0  0  0  0  0  0  0  0  0  0  0  0
   -3.5811   23.8329    4.6167 C   0  0  0  0  0  0  0  0  0  0  0  0
   -3.1803   22.5991    4.6726 N   0  0  0  0  0  0  0  0  0  0  0  0
  1  2  2  3
  2  3  1  0
  3  4  1  0
  4  5  1  1
  4  6  1  0
  6  7  2  0
  7  8  1  0
  8  9  2  3
  9 10  1  0
 10 11  1  0
 10 12  2  0
  8 13  1  0
 13 14  2  0
 14 15  1  0
 15 16  2  0
 16  2  1  0
 15  6  1  0
M  END
>  <Energy>  (123) 
-7.1609650969485363

>  <Energy_Delta>  (123) 
0.61240993493895335

>  <std_smi>  (123) 
CC(=O)Nc1ccc2nc(C)cc(O)c2c1

>  <enum_smi>  (123) 
C=C1CC(O)C2=CC(=NC(C)=O)C=CC2=N1

>  <enum_code>  (123) 
T

>  <parent_uuid>  (123) 
ea1addea-57d6-4931-9057-ca9db5b0445d

>  <o3da_score>  (123) 
84.296029059135293

>  <o3da_score_rel>  (123) 
0.33559473955003222

>  <o3da_align>  (123) 
0.22119469793665991

>  <RMSD>  (123) 
6.7124040049620727e-05

>  <CONVERGED>  (123) 
0

>  <ENERGY>  (123) 
-7.1609650970506511

$$$$
c0317c04-c085-4876-8f8b-36250f60fa69
     RDKit          3D

 16 17  0  0  0  0  0  0  0  0999 V2000
   -4.6105   25.7535    4.1510 C   0  0  0  0  0  0  0  0  0  0  0  0
   -4.2796   27.0278    3.9045 C   0  0  0  0  0  0  0  0  0  0  0  0
   -4.8278   28.1643    4.7262 C   0  0  0  0  0  0  0  0  0  0  0  0
   -3.6763   29.0770    5.1360 C   0  0  2  0  0  0  0  0  0  0  0  0
   -4.1796   30.2245    5.8210 O   0  0  0  0  0  0  0  0  0  0  0  0
   -2.8843   29.4896    3.9302 C   0  0  0  0  0  0  0  0  0  0  0  0
   -2.2866   30.6777    3.7677 C   0  0  0  0  0  0  0  0  0  0  0  0
   -1.4898   31.0363    2.5658 C   0  0  0  0  0  0  0  0  0  0  0  0
   -0.9855   32.2293    2.5446 N   0  0  0  0  0  0  0  0  0  0  0  0
   -0.2626   32.6725    1.4677 C   0  0  0  0  0  0  0  0  0  0  0  0
    0.8816   33.5696    1.8576 C   0  0  0  0  0  0  0  0  0  0  0  0
   -0.5161   32.4378    0.2903 O   0  0  0  0  0  0  0  0  0  0  0  0
   -1.3496   29.9558    1.5547 C   0  0  0  0  0  0  0  0  0  0  0  0
   -1.9550   28.7737    1.6969 C   0  0  0  0  0  0  0  0  0  0  0  0
   -2.8121   28.4547    2.8596 C   0  0  0  0  0  0  0  0  0  0  0  0
   -3.4332   27.3136    2.8634 N   0  0  0  0  0  0  0  0  0  0  0  0
  1  2  2  3
  2  3  1  0
  3  4  1  0
  4  5  1  6
  4  6  1  0
  6  7  2  0
  7  8  1  0
  8  9  2  3
  9 10  1  0
 10 11  1  0
 10 12  2  0
  8 13  1  0
 13 14  2  0
 14 15  1  0
 15 16  2  0
 16  2  1  0
 15  6  1  0
M  END
>  <Energy>  (124) 
-7.0893163400802504

>  <Energy_Delta>  (124) 
0.68405869180723933

>  <std_smi>  (124) 
CC(=O)Nc1ccc2nc(C)cc(O)c2c1

>  <enum_smi>  (124) 
C=C1CC(O)C2=CC(=NC(C)=O)C=CC2=N1

>  <enum_code>  (124) 
T

>  <parent_uuid>  (124) 
ea1addea-57d6-4931-9057-ca9db5b0445d

>  <o3da_score>  (124) 
77.592571263189399

>  <o3da_score_rel>  (124) 
0.30890730007958073

>  <o3da_align>  (124) 
0.48429426996818914

>  <RMSD>  (124) 
0.048623339157931142

>  <CONVERGED>  (124) 
0

>  <ENERGY>  (124) 
-7.2462865628860431

$$$$
c0317c04-c085-4876-8f8b-36250f60fa69
     RDKit          3D

 16 17  0  0  0  0  0  0  0  0999 V2000
   -5.0969   30.7135    7.0026 C   0  0  0  0  0  0  0  0  0  0  0  0
   -4.5764   31.0437    5.8132 C   0  0  0  0  0  0  0  0  0  0  0  0
   -4.9446   30.3000    4.5522 C   0  0  0  0  0  0  0  0  0  0  0  0
   -3.6834   29.9636    3.7579 C   0  0  2  0  0  0  0  0  0  0  0  0
   -2.9733   28.8878    4.3746 O   0  0  0  0  0  0  0  0  0  0  0  0
   -2.7738   31.1470    3.6343 C   0  0  0  0  0  0  0  0  0  0  0  0
   -1.9398   31.3306    2.6000 C   0  0  0  0  0  0  0  0  0  0  0  0
   -1.0464   32.5155    2.4897 C   0  0  0  0  0  0  0  0  0  0  0  0
   -0.2275   32.8273    1.5360 N   0  0  0  0  0  0  0  0  0  0  0  0
   -0.0491   32.0012    0.4567 C   0  0  0  0  0  0  0  0  0  0  0  0
    0.1519   32.7531   -0.8319 C   0  0  0  0  0  0  0  0  0  0  0  0
    0.0068   30.7766    0.4958 O   0  0  0  0  0  0  0  0  0  0  0  0
   -1.1247   33.4733    3.6217 C   0  0  0  0  0  0  0  0  0  0  0  0
   -1.9611   33.3059    4.6478 C   0  0  0  0  0  0  0  0  0  0  0  0
   -2.8789   32.1497    4.7290 C   0  0  0  0  0  0  0  0  0  0  0  0
   -3.6969   32.0926    5.7351 N   0  0  0  0  0  0  0  0  0  0  0  0
  1  2  2  3
  2  3  1  0
  3  4  1  0
  4  5  1  1
  4  6  1  0
  6  7  2  0
  7  8  1  0
  8  9  2  3
  9 10  1  0
 10 11  1  0
 10 12  2  0
  8 13  1  0
 13 14  2  0
 14 15  1  0
 15 16  2  0
 16  2  1  0
 15  6  1  0
M  END
>  <Energy>  (125) 
-7.0586087492535352

>  <Energy_Delta>  (125) 
0.71476628263395448

>  <std_smi>  (125) 
CC(=O)Nc1ccc2nc(C)cc(O)c2c1

>  <enum_smi>  (125) 
C=C1CC(O)C2=CC(=NC(C)=O)C=CC2=N1

>  <enum_code>  (125) 
T

>  <parent_uuid>  (125) 
ea1addea-57d6-4931-9057-ca9db5b0445d

>  <o3da_score>  (125) 
80.661093517311855

>  <o3da_score_rel>  (125) 
0.32112353301687946

>  <o3da_align>  (125) 
0.53594199511346596

>  <RMSD>  (125) 
6.6093139225001068e-05

>  <CONVERGED>  (125) 
0

>  <ENERGY>  (125) 
-7.0586087494966385

$$$$
c0317c04-c085-4876-8f8b-36250f60fa69
     RDKit          3D

 16 17  0  0  0  0  0  0  0  0999 V2000
    0.9420   32.3044   -0.4765 C   0  0  0  0  0  0  0  0  0  0  0  0
   -0.0578   32.0313    0.3720 C   0  0  0  0  0  0  0  0  0  0  0  0
   -0.6391   33.0850    1.2787 C   0  0  0  0  0  0  0  0  0  0  0  0
   -0.7305   32.5177    2.6907 C   0  0  1  0  0  0  0  0  0  0  0  0
   -1.3596   33.4775    3.5393 O   0  0  0  0  0  0  0  0  0  0  0  0
   -1.4889   31.2220    2.6774 C   0  0  0  0  0  0  0  0  0  0  0  0
   -2.3270   30.7962    3.6322 C   0  0  0  0  0  0  0  0  0  0  0  0
   -3.0256   29.4851    3.5834 C   0  0  0  0  0  0  0  0  0  0  0  0
   -3.8386   29.2316    4.5597 N   0  0  0  0  0  0  0  0  0  0  0  0
   -4.4967   28.0308    4.6231 C   0  0  0  0  0  0  0  0  0  0  0  0
   -5.9350   28.1657    5.0455 C   0  0  0  0  0  0  0  0  0  0  0  0
   -3.9877   26.9326    4.4232 O   0  0  0  0  0  0  0  0  0  0  0  0
   -2.6980   28.6340    2.4105 C   0  0  0  0  0  0  0  0  0  0  0  0
   -1.8826   29.0565    1.4407 C   0  0  0  0  0  0  0  0  0  0  0  0
   -1.2623   30.3994    1.4532 C   0  0  0  0  0  0  0  0  0  0  0  0
   -0.5818   30.7634    0.4086 N   0  0  0  0  0  0  0  0  0  0  0  0
  1  2  2  3
  2  3  1  0
  3  4  1  0
  4  5  1  1
  4  6  1  0
  6  7  2  0
  7  8  1  0
  8  9  2  3
  9 10  1  0
 10 11  1  0
 10 12  2  0
  8 13  1  0
 13 14  2  0
 14 15  1  0
 15 16  2  0
 16  2  1  0
 15  6  1  0
M  END
>  <Energy>  (126) 
-6.8935402968034882

>  <Energy_Delta>  (126) 
0.87983473508400145

>  <std_smi>  (126) 
CC(=O)Nc1ccc2nc(C)cc(O)c2c1

>  <enum_smi>  (126) 
C=C1CC(O)C2=CC(=NC(C)=O)C=CC2=N1

>  <enum_code>  (126) 
T

>  <parent_uuid>  (126) 
ea1addea-57d6-4931-9057-ca9db5b0445d

>  <o3da_score>  (126) 
119.60006015430071

>  <o3da_score_rel>  (126) 
0.47614521687010603

>  <o3da_align>  (126) 
0.33415724471850755

>  <RMSD>  (126) 
0.082541534583051843

>  <CONVERGED>  (126) 
0

>  <ENERGY>  (126) 
-6.3647986436880348

$$$$
9bbd48a8-ac6b-4c1d-b764-ab9aed8125b0
     RDKit          3D

 16 17  0  0  0  0  0  0  0  0999 V2000
    1.0369   32.2802   -0.4311 C   0  0  0  0  0  0  0  0  0  0  0  0
    0.1345   31.9715    0.5082 C   0  0  0  0  0  0  0  0  0  0  0  0
   -0.1887   32.9087    1.5666 C   0  0  0  0  0  0  0  0  0  0  0  0
   -1.0705   32.6234    2.5310 C   0  0  0  0  0  0  0  0  0  0  0  0
   -1.3784   33.5639    3.4913 O   0  0  0  0  0  0  0  0  0  0  0  0
   -1.7182   31.3273    2.5439 C   0  0  0  0  0  0  0  0  0  0  0  0
   -1.3500   30.4447    1.3910 C   0  0  0  0  0  0  0  0  0  0  0  0
   -0.5001   30.7539    0.4576 N   0  0  0  0  0  0  0  0  0  0  0  0
   -2.0021   29.1192    1.3266 C   0  0  0  0  0  0  0  0  0  0  0  0
   -2.8524   28.6967    2.2645 C   0  0  0  0  0  0  0  0  0  0  0  0
   -3.2016   29.5385    3.4343 C   0  0  0  0  0  0  0  0  0  0  0  0
   -3.9990   29.2453    4.4023 N   0  0  0  0  0  0  0  0  0  0  0  0
   -4.6873   27.9662    4.4082 C   0  0  2  0  0  0  0  0  0  0  0  0
   -5.7026   27.9894    5.5448 C   0  0  0  0  0  0  0  0  0  0  0  0
   -3.8302   26.8575    4.6117 O   0  0  0  0  0  0  0  0  0  0  0  0
   -2.5567   30.8756    3.4860 C   0  0  0  0  0  0  0  0  0  0  0  0
  1  2  2  3
  2  3  1  0
  3  4  2  0
  4  5  1  0
  4  6  1  0
  6  7  1  0
  7  8  2  0
  7  9  1  0
  9 10  2  0
 10 11  1  0
 11 12  2  3
 12 13  1  0
 13 14  1  1
 13 15  1  0
 11 16  1  0
  8  2  1  0
 16  6  2  0
M  END
>  <Energy>  (127) 
-37.187032744870677

>  <Energy_Delta>  (127) 
0

>  <std_smi>  (127) 
CC(=O)Nc1ccc2nc(C)cc(O)c2c1

>  <enum_smi>  (127) 
C=c1cc(O)c2c(n1)C=CC(=NC(C)O)C=2

>  <enum_code>  (127) 
T

>  <parent_uuid>  (127) 
ea1addea-57d6-4931-9057-ca9db5b0445d

>  <o3da_score>  (127) 
115.95824481688729

>  <o3da_score_rel>  (127) 
0.46164662087110359

>  <o3da_align>  (127) 
0.39394619763391026

>  <RMSD>  (127) 
0.068195056664953985

>  <CONVERGED>  (127) 
0

>  <ENERGY>  (127) 
-33.705868193727646

$$$$
9bbd48a8-ac6b-4c1d-b764-ab9aed8125b0
     RDKit          3D

 16 17  0  0  0  0  0  0  0  0999 V2000
   -1.8986   29.2187    1.3570 C   0  0  0  0  0  0  0  0  0  0  0  0
   -1.3286   30.4287    1.4116 C   0  0  0  0  0  0  0  0  0  0  0  0
   -1.6007   31.3307    2.5141 C   0  0  0  0  0  0  0  0  0  0  0  0
   -1.0688   32.5558    2.5849 C   0  0  0  0  0  0  0  0  0  0  0  0
   -1.3224   33.3616    3.6748 O   0  0  0  0  0  0  0  0  0  0  0  0
   -0.2050   33.0203    1.5182 C   0  0  0  0  0  0  0  0  0  0  0  0
    0.0557   32.0019    0.4511 C   0  0  0  0  0  0  0  0  0  0  0  0
   -0.4634   30.8109    0.4151 N   0  0  0  0  0  0  0  0  0  0  0  0
    0.9719   32.3950   -0.6407 C   0  0  0  0  0  0  0  0  0  0  0  0
    1.5017   33.6174   -0.7208 C   0  0  0  0  0  0  0  0  0  0  0  0
    1.2029   34.6625    0.2879 C   0  0  0  0  0  0  0  0  0  0  0  0
    1.6249   35.8793    0.3060 N   0  0  0  0  0  0  0  0  0  0  0  0
    2.4690   36.3652   -0.7715 C   0  0  1  0  0  0  0  0  0  0  0  0
    2.6138   37.8736   -0.6055 C   0  0  0  0  0  0  0  0  0  0  0  0
    3.7677   35.8001   -0.7770 O   0  0  0  0  0  0  0  0  0  0  0  0
    0.3217   34.2473    1.4093 C   0  0  0  0  0  0  0  0  0  0  0  0
  1  2  2  3
  2  3  1  0
  3  4  2  0
  4  5  1  0
  4  6  1  0
  6  7  1  0
  7  8  2  0
  7  9  1  0
  9 10  2  0
 10 11  1  0
 11 12  2  3
 12 13  1  0
 13 14  1  1
 13 15  1  0
 11 16  1  0
  8  2  1  0
 16  6  2  0
M  END
>  <Energy>  (128) 
-37.187032744751363

>  <Energy_Delta>  (128) 
1.1931433618883602e-10

>  <std_smi>  (128) 
CC(=O)Nc1ccc2nc(C)cc(O)c2c1

>  <enum_smi>  (128) 
C=c1cc(O)c2c(n1)C=CC(=NC(C)O)C=2

>  <enum_code>  (128) 
T

>  <parent_uuid>  (128) 
ea1addea-57d6-4931-9057-ca9db5b0445d

>  <o3da_score>  (128) 
77.841378060398696

>  <o3da_score_rel>  (128) 
0.30989783608987315

>  <o3da_align>  (128) 
0.09705122063798742

>  <RMSD>  (128) 
0.065053826303556661

>  <CONVERGED>  (128) 
0

>  <ENERGY>  (128) 
-33.705047645325202

$$$$
9bbd48a8-ac6b-4c1d-b764-ab9aed8125b0
     RDKit          3D

 16 17  0  0  0  0  0  0  0  0999 V2000
    0.6678   32.4280   -0.6802 C   0  0  0  0  0  0  0  0  0  0  0  0
   -0.0242   32.0458    0.4000 C   0  0  0  0  0  0  0  0  0  0  0  0
   -0.2653   32.9670    1.4939 C   0  0  0  0  0  0  0  0  0  0  0  0
   -0.9790   32.6256    2.5723 C   0  0  0  0  0  0  0  0  0  0  0  0
   -1.1418   33.5179    3.6110 O   0  0  0  0  0  0  0  0  0  0  0  0
   -1.5591   31.3001    2.6540 C   0  0  0  0  0  0  0  0  0  0  0  0
   -1.2062   30.4043    1.5059 C   0  0  0  0  0  0  0  0  0  0  0  0
   -0.4954   30.7573    0.4766 N   0  0  0  0  0  0  0  0  0  0  0  0
   -1.7166   29.0182    1.5571 C   0  0  0  0  0  0  0  0  0  0  0  0
   -2.5038   28.5947    2.5468 C   0  0  0  0  0  0  0  0  0  0  0  0
   -2.9203   29.4790    3.6590 C   0  0  0  0  0  0  0  0  0  0  0  0
   -3.7005   28.9680    4.5471 N   0  0  0  0  0  0  0  0  0  0  0  0
   -4.1630   29.7786    5.6592 C   0  0  1  0  0  0  0  0  0  0  0  0
   -5.1923   28.9649    6.4350 C   0  0  0  0  0  0  0  0  0  0  0  0
   -3.1328   30.1559    6.5573 O   0  0  0  0  0  0  0  0  0  0  0  0
   -2.3736   30.8623    3.6249 C   0  0  0  0  0  0  0  0  0  0  0  0
  1  2  2  3
  2  3  1  0
  3  4  2  0
  4  5  1  0
  4  6  1  0
  6  7  1  0
  7  8  2  0
  7  9  1  0
  9 10  2  0
 10 11  1  0
 11 12  2  3
 12 13  1  0
 13 14  1  1
 13 15  1  0
 11 16  1  0
  8  2  1  0
 16  6  2  0
M  END
>  <Energy>  (129) 
-37.122089606335962

>  <Energy_Delta>  (129) 
0.064943138534715672

>  <std_smi>  (129) 
CC(=O)Nc1ccc2nc(C)cc(O)c2c1

>  <enum_smi>  (129) 
C=c1cc(O)c2c(n1)C=CC(=NC(C)O)C=2

>  <enum_code>  (129) 
T

>  <parent_uuid>  (129) 
ea1addea-57d6-4931-9057-ca9db5b0445d

>  <o3da_score>  (129) 
101.54770715364666

>  <o3da_score_rel>  (129) 
0.40427617664201004

>  <o3da_align>  (129) 
0.18582837084878706

>  <RMSD>  (129) 
0.0762929293013513

>  <CONVERGED>  (129) 
0

>  <ENERGY>  (129) 
-34.010928563843095

$$$$
9bbd48a8-ac6b-4c1d-b764-ab9aed8125b0
     RDKit          3D

 16 17  0  0  0  0  0  0  0  0999 V2000
   -1.9903   20.7177    5.2185 C   0  0  0  0  0  0  0  0  0  0  0  0
   -2.1687   22.0431    5.1622 C   0  0  0  0  0  0  0  0  0  0  0  0
   -1.1188   22.9539    5.5765 C   0  0  0  0  0  0  0  0  0  0  0  0
   -1.2779   24.2815    5.5580 C   0  0  0  0  0  0  0  0  0  0  0  0
   -0.2390   25.1167    5.9082 O   0  0  0  0  0  0  0  0  0  0  0  0
   -2.5454   24.8452    5.1397 C   0  0  0  0  0  0  0  0  0  0  0  0
   -3.5452   23.8289    4.6799 C   0  0  0  0  0  0  0  0  0  0  0  0
   -3.3580   22.5430    4.6891 N   0  0  0  0  0  0  0  0  0  0  0  0
   -4.8410   24.3418    4.1905 C   0  0  0  0  0  0  0  0  0  0  0  0
   -5.1351   25.6423    4.2150 C   0  0  0  0  0  0  0  0  0  0  0  0
   -4.1891   26.6615    4.7265 C   0  0  0  0  0  0  0  0  0  0  0  0
   -4.6022   27.8791    4.7232 N   0  0  0  0  0  0  0  0  0  0  0  0
   -3.7768   28.9782    5.1844 C   0  0  2  0  0  0  0  0  0  0  0  0
   -3.9463   29.1512    6.6872 C   0  0  0  0  0  0  0  0  0  0  0  0
   -4.1626   30.1957    4.5722 O   0  0  0  0  0  0  0  0  0  0  0  0
   -2.8686   26.1466    5.1786 C   0  0  0  0  0  0  0  0  0  0  0  0
  1  2  2  3
  2  3  1  0
  3  4  2  0
  4  5  1  0
  4  6  1  0
  6  7  1  0
  7  8  2  0
  7  9  1  0
  9 10  2  0
 10 11  1  0
 11 12  2  3
 12 13  1  0
 13 14  1  1
 13 15  1  0
 11 16  1  0
  8  2  1  0
 16  6  2  0
M  END
>  <Energy>  (130) 
-35.692785981022006

>  <Energy_Delta>  (130) 
1.4942467638486718

>  <std_smi>  (130) 
CC(=O)Nc1ccc2nc(C)cc(O)c2c1

>  <enum_smi>  (130) 
C=c1cc(O)c2c(n1)C=CC(=NC(C)O)C=2

>  <enum_code>  (130) 
T

>  <parent_uuid>  (130) 
ea1addea-57d6-4931-9057-ca9db5b0445d

>  <o3da_score>  (130) 
86.491462700791899

>  <o3da_score_rel>  (130) 
0.34433507986492728

>  <o3da_align>  (130) 
0.15234202460625487

>  <RMSD>  (130) 
0.096437046893912581

>  <CONVERGED>  (130) 
0

>  <ENERGY>  (130) 
-30.847137568135444

$$$$
9bbd48a8-ac6b-4c1d-b764-ab9aed8125b0
     RDKit          3D

 16 17  0  0  0  0  0  0  0  0999 V2000
   -1.6955   29.1373    1.4883 C   0  0  0  0  0  0  0  0  0  0  0  0
   -1.2425   30.3968    1.4683 C   0  0  0  0  0  0  0  0  0  0  0  0
   -1.5606   31.3194    2.5411 C   0  0  0  0  0  0  0  0  0  0  0  0
   -1.1059   32.5772    2.5620 C   0  0  0  0  0  0  0  0  0  0  0  0
   -1.4710   33.4314    3.5809 O   0  0  0  0  0  0  0  0  0  0  0  0
   -0.2463   33.0419    1.4924 C   0  0  0  0  0  0  0  0  0  0  0  0
   -0.0101   32.0329    0.4118 C   0  0  0  0  0  0  0  0  0  0  0  0
   -0.4772   30.8203    0.4086 N   0  0  0  0  0  0  0  0  0  0  0  0
    0.8281   32.4581   -0.7296 C   0  0  0  0  0  0  0  0  0  0  0  0
    1.3952   33.6650   -0.7893 C   0  0  0  0  0  0  0  0  0  0  0  0
    1.2143   34.6632    0.2923 C   0  0  0  0  0  0  0  0  0  0  0  0
    1.7122   35.8469    0.3659 N   0  0  0  0  0  0  0  0  0  0  0  0
    2.5626   36.3853   -0.6795 C   0  0  2  0  0  0  0  0  0  0  0  0
    4.0082   35.9818   -0.4240 C   0  0  0  0  0  0  0  0  0  0  0  0
    2.5166   37.8012   -0.6920 O   0  0  0  0  0  0  0  0  0  0  0  0
    0.3489   34.2401    1.4240 C   0  0  0  0  0  0  0  0  0  0  0  0
  1  2  2  3
  2  3  1  0
  3  4  2  0
  4  5  1  0
  4  6  1  0
  6  7  1  0
  7  8  2  0
  7  9  1  0
  9 10  2  0
 10 11  1  0
 11 12  2  3
 12 13  1  0
 13 14  1  1
 13 15  1  0
 11 16  1  0
  8  2  1  0
 16  6  2  0
M  END
>  <Energy>  (131) 
-35.163915421777318

>  <Energy_Delta>  (131) 
2.0231173230933592

>  <std_smi>  (131) 
CC(=O)Nc1ccc2nc(C)cc(O)c2c1

>  <enum_smi>  (131) 
C=c1cc(O)c2c(n1)C=CC(=NC(C)O)C=2

>  <enum_code>  (131) 
T

>  <parent_uuid>  (131) 
ea1addea-57d6-4931-9057-ca9db5b0445d

>  <o3da_score>  (131) 
77.837928373070611

>  <o3da_score_rel>  (131) 
0.3098841023833947

>  <o3da_align>  (131) 
0.098105110886247279

>  <RMSD>  (131) 
0.067241690205436799

>  <CONVERGED>  (131) 
0

>  <ENERGY>  (131) 
-31.588372179751914

$$$$
9bbd48a8-ac6b-4c1d-b764-ab9aed8125b0
     RDKit          3D

 16 17  0  0  0  0  0  0  0  0999 V2000
   -1.7173   20.8106    5.0144 C   0  0  0  0  0  0  0  0  0  0  0  0
   -2.0067   22.1173    5.0364 C   0  0  0  0  0  0  0  0  0  0  0  0
   -1.0406   23.0856    5.5184 C   0  0  0  0  0  0  0  0  0  0  0  0
   -1.3086   24.3946    5.5789 C   0  0  0  0  0  0  0  0  0  0  0  0
   -0.3427   25.2839    6.0006 O   0  0  0  0  0  0  0  0  0  0  0  0
   -2.6138   24.8741    5.1722 C   0  0  0  0  0  0  0  0  0  0  0  0
   -3.5224   23.8089    4.6417 C   0  0  0  0  0  0  0  0  0  0  0  0
   -3.2309   22.5435    4.5806 N   0  0  0  0  0  0  0  0  0  0  0  0
   -4.8514   24.2420    4.1619 C   0  0  0  0  0  0  0  0  0  0  0  0
   -5.2601   25.5100    4.2445 C   0  0  0  0  0  0  0  0  0  0  0  0
   -4.4042   26.5726    4.8224 C   0  0  0  0  0  0  0  0  0  0  0  0
   -4.6779   27.8157    4.9918 N   0  0  0  0  0  0  0  0  0  0  0  0
   -5.9408   28.4200    4.5988 C   0  0  2  0  0  0  0  0  0  0  0  0
   -6.9932   28.1796    5.6742 C   0  0  0  0  0  0  0  0  0  0  0  0
   -6.4582   28.0531    3.3286 O   0  0  0  0  0  0  0  0  0  0  0  0
   -3.0534   26.1361    5.2655 C   0  0  0  0  0  0  0  0  0  0  0  0
  1  2  2  3
  2  3  1  0
  3  4  2  0
  4  5  1  0
  4  6  1  0
  6  7  1  0
  7  8  2  0
  7  9  1  0
  9 10  2  0
 10 11  1  0
 11 12  2  3
 12 13  1  0
 13 14  1  1
 13 15  1  0
 11 16  1  0
  8  2  1  0
 16  6  2  0
M  END
>  <Energy>  (132) 
-34.437023864962484

>  <Energy_Delta>  (132) 
2.7500088799081936

>  <std_smi>  (132) 
CC(=O)Nc1ccc2nc(C)cc(O)c2c1

>  <enum_smi>  (132) 
C=c1cc(O)c2c(n1)C=CC(=NC(C)O)C=2

>  <enum_code>  (132) 
T

>  <parent_uuid>  (132) 
ea1addea-57d6-4931-9057-ca9db5b0445d

>  <o3da_score>  (132) 
86.192097807311399

>  <o3da_score_rel>  (132) 
0.34314326472749618

>  <o3da_align>  (132) 
0.1765625517889145

>  <RMSD>  (132) 
0.066006801308498758

>  <CONVERGED>  (132) 
0

>  <ENERGY>  (132) 
-28.763269223258707

$$$$
9bbd48a8-ac6b-4c1d-b764-ab9aed8125b0
     RDKit          3D

 16 17  0  0  0  0  0  0  0  0999 V2000
   -1.8931   20.8109    5.3356 C   0  0  0  0  0  0  0  0  0  0  0  0
   -2.1064   22.1270    5.2166 C   0  0  0  0  0  0  0  0  0  0  0  0
   -1.0468   23.0801    5.4864 C   0  0  0  0  0  0  0  0  0  0  0  0
   -1.2401   24.4015    5.4143 C   0  0  0  0  0  0  0  0  0  0  0  0
   -0.1931   25.2751    5.6191 O   0  0  0  0  0  0  0  0  0  0  0  0
   -2.5537   24.9137    5.0821 C   0  0  0  0  0  0  0  0  0  0  0  0
   -3.5599   23.8552    4.7505 C   0  0  0  0  0  0  0  0  0  0  0  0
   -3.3412   22.5752    4.8127 N   0  0  0  0  0  0  0  0  0  0  0  0
   -4.9000   24.3155    4.3310 C   0  0  0  0  0  0  0  0  0  0  0  0
   -5.2239   25.6092    4.3134 C   0  0  0  0  0  0  0  0  0  0  0  0
   -4.2702   26.6711    4.7107 C   0  0  0  0  0  0  0  0  0  0  0  0
   -4.7081   27.8799    4.6878 N   0  0  0  0  0  0  0  0  0  0  0  0
   -3.8476   28.9921    5.0546 C   0  0  2  0  0  0  0  0  0  0  0  0
   -4.6730   30.2672    4.8944 C   0  0  0  0  0  0  0  0  0  0  0  0
   -2.6567   29.1154    4.2856 O   0  0  0  0  0  0  0  0  0  0  0  0
   -2.9099   26.2061    5.0887 C   0  0  0  0  0  0  0  0  0  0  0  0
  1  2  2  3
  2  3  1  0
  3  4  2  0
  4  5  1  0
  4  6  1  0
  6  7  1  0
  7  8  2  0
  7  9  1  0
  9 10  2  0
 10 11  1  0
 11 12  2  3
 12 13  1  0
 13 14  1  6
 13 15  1  0
 11 16  1  0
  8  2  1  0
 16  6  2  0
M  END
>  <Energy>  (133) 
-34.010928563661601

>  <Energy_Delta>  (133) 
3.1761041812090767

>  <std_smi>  (133) 
CC(=O)Nc1ccc2nc(C)cc(O)c2c1

>  <enum_smi>  (133) 
C=c1cc(O)c2c(n1)C=CC(=NC(C)O)C=2

>  <enum_code>  (133) 
T

>  <parent_uuid>  (133) 
ea1addea-57d6-4931-9057-ca9db5b0445d

>  <o3da_score>  (133) 
90.578232436801372

>  <o3da_score_rel>  (133) 
0.36060510397478091

>  <o3da_align>  (133) 
0.33275954114429523

>  <RMSD>  (133) 
0.059729256806255043

>  <CONVERGED>  (133) 
0

>  <ENERGY>  (133) 
-30.751072472608122

$$$$
9bbd48a8-ac6b-4c1d-b764-ab9aed8125b0
     RDKit          3D

 16 17  0  0  0  0  0  0  0  0999 V2000
   -1.7138   20.8154    4.9931 C   0  0  0  0  0  0  0  0  0  0  0  0
   -2.0055   22.1214    5.0252 C   0  0  0  0  0  0  0  0  0  0  0  0
   -1.0413   23.0877    5.5150 C   0  0  0  0  0  0  0  0  0  0  0  0
   -1.3104   24.3962    5.5825 C   0  0  0  0  0  0  0  0  0  0  0  0
   -0.3464   25.2831    6.0131 O   0  0  0  0  0  0  0  0  0  0  0  0
   -2.6151   24.8772    5.1758 C   0  0  0  0  0  0  0  0  0  0  0  0
   -3.5240   23.8132    4.6429 C   0  0  0  0  0  0  0  0  0  0  0  0
   -3.2310   22.5488    4.5741 N   0  0  0  0  0  0  0  0  0  0  0  0
   -4.8555   24.2465    4.1697 C   0  0  0  0  0  0  0  0  0  0  0  0
   -5.2640   25.5144    4.2536 C   0  0  0  0  0  0  0  0  0  0  0  0
   -4.4037   26.5764    4.8270 C   0  0  0  0  0  0  0  0  0  0  0  0
   -4.6752   27.8226    4.9827 N   0  0  0  0  0  0  0  0  0  0  0  0
   -5.9429   28.4196    4.5970 C   0  0  1  0  0  0  0  0  0  0  0  0
   -6.0028   28.6481    3.0930 C   0  0  0  0  0  0  0  0  0  0  0  0
   -7.1045   27.7358    5.0307 O   0  0  0  0  0  0  0  0  0  0  0  0
   -3.0536   26.1395    5.2704 C   0  0  0  0  0  0  0  0  0  0  0  0
  1  2  2  3
  2  3  1  0
  3  4  2  0
  4  5  1  0
  4  6  1  0
  6  7  1  0
  7  8  2  0
  7  9  1  0
  9 10  2  0
 10 11  1  0
 11 12  2  3
 12 13  1  0
 13 14  1  6
 13 15  1  0
 11 16  1  0
  8  2  1  0
 16  6  2  0
M  END
>  <Energy>  (134) 
-31.714196762153229

>  <Energy_Delta>  (134) 
5.4728359827174486

>  <std_smi>  (134) 
CC(=O)Nc1ccc2nc(C)cc(O)c2c1

>  <enum_smi>  (134) 
C=c1cc(O)c2c(n1)C=CC(=NC(C)O)C=2

>  <enum_code>  (134) 
T

>  <parent_uuid>  (134) 
ea1addea-57d6-4931-9057-ca9db5b0445d

>  <o3da_score>  (134) 
86.169956916539846

>  <o3da_score_rel>  (134) 
0.34305511862435445

>  <o3da_align>  (134) 
0.17831551411103683

>  <RMSD>  (134) 
0.064481963720611338

>  <CONVERGED>  (134) 
0

>  <ENERGY>  (134) 
-31.030104674856894

$$$$
9bbd48a8-ac6b-4c1d-b764-ab9aed8125b0
     RDKit          3D

 16 17  0  0  0  0  0  0  0  0999 V2000
   -3.7886   20.3405    4.3169 C   0  0  0  0  0  0  0  0  0  0  0  0
   -4.1261   21.6338    4.2445 C   0  0  0  0  0  0  0  0  0  0  0  0
   -5.4295   22.0366    3.7523 C   0  0  0  0  0  0  0  0  0  0  0  0
   -5.8069   23.3184    3.6908 C   0  0  0  0  0  0  0  0  0  0  0  0
   -7.0399   23.6560    3.1743 O   0  0  0  0  0  0  0  0  0  0  0  0
   -4.8997   24.3507    4.1493 C   0  0  0  0  0  0  0  0  0  0  0  0
   -3.5641   23.8414    4.5947 C   0  0  0  0  0  0  0  0  0  0  0  0
   -3.2171   22.5896    4.6296 N   0  0  0  0  0  0  0  0  0  0  0  0
   -2.5745   24.8497    5.0306 C   0  0  0  0  0  0  0  0  0  0  0  0
   -2.8584   26.1530    5.0842 C   0  0  0  0  0  0  0  0  0  0  0  0
   -4.1941   26.6735    4.7049 C   0  0  0  0  0  0  0  0  0  0  0  0
   -4.6023   27.8930    4.7292 N   0  0  0  0  0  0  0  0  0  0  0  0
   -3.7490   28.9762    5.1817 C   0  0  1  0  0  0  0  0  0  0  0  0
   -2.9204   29.4988    4.0165 C   0  0  0  0  0  0  0  0  0  0  0  0
   -4.5202   30.0599    5.6691 O   0  0  0  0  0  0  0  0  0  0  0  0
   -5.1716   25.6601    4.2297 C   0  0  0  0  0  0  0  0  0  0  0  0
  1  2  2  3
  2  3  1  0
  3  4  2  0
  4  5  1  0
  4  6  1  0
  6  7  1  0
  7  8  2  0
  7  9  1  0
  9 10  2  0
 10 11  1  0
 11 12  2  3
 12 13  1  0
 13 14  1  6
 13 15  1  0
 11 16  1  0
  8  2  1  0
 16  6  2  0
M  END
>  <Energy>  (135) 
-31.588372179718373

>  <Energy_Delta>  (135) 
5.5986605651523043

>  <std_smi>  (135) 
CC(=O)Nc1ccc2nc(C)cc(O)c2c1

>  <enum_smi>  (135) 
C=c1cc(O)c2c(n1)C=CC(=NC(C)O)C=2

>  <enum_code>  (135) 
T

>  <parent_uuid>  (135) 
ea1addea-57d6-4931-9057-ca9db5b0445d

>  <o3da_score>  (135) 
91.384260351819933

>  <o3da_score_rel>  (135) 
0.36381401821700399

>  <o3da_align>  (135) 
0.23450037788273548

>  <RMSD>  (135) 
0.12134240047169427

>  <CONVERGED>  (135) 
0

>  <ENERGY>  (135) 
-31.589457132218421

$$$$
9bbd48a8-ac6b-4c1d-b764-ab9aed8125b0
     RDKit          3D

 16 17  0  0  0  0  0  0  0  0999 V2000
   -2.0301   20.6973    5.2727 C   0  0  0  0  0  0  0  0  0  0  0  0
   -2.2015   22.0235    5.2122 C   0  0  0  0  0  0  0  0  0  0  0  0
   -1.1494   22.9298    5.6309 C   0  0  0  0  0  0  0  0  0  0  0  0
   -1.3015   24.2584    5.6124 C   0  0  0  0  0  0  0  0  0  0  0  0
   -0.2560   25.0862    5.9644 O   0  0  0  0  0  0  0  0  0  0  0  0
   -2.5639   24.8264    5.1841 C   0  0  0  0  0  0  0  0  0  0  0  0
   -3.5644   23.8155    4.7156 C   0  0  0  0  0  0  0  0  0  0  0  0
   -3.3851   22.5280    4.7295 N   0  0  0  0  0  0  0  0  0  0  0  0
   -4.8530   24.3348    4.2129 C   0  0  0  0  0  0  0  0  0  0  0  0
   -5.1372   25.6378    4.2255 C   0  0  0  0  0  0  0  0  0  0  0  0
   -4.1876   26.6555    4.7361 C   0  0  0  0  0  0  0  0  0  0  0  0
   -4.5907   27.8739    4.7099 N   0  0  0  0  0  0  0  0  0  0  0  0
   -3.7861   29.0033    5.1455 C   0  0  1  0  0  0  0  0  0  0  0  0
   -3.8993   29.1717    6.6555 C   0  0  0  0  0  0  0  0  0  0  0  0
   -2.4156   29.0022    4.7673 O   0  0  0  0  0  0  0  0  0  0  0  0
   -2.8839   26.1280    5.2150 C   0  0  0  0  0  0  0  0  0  0  0  0
  1  2  2  3
  2  3  1  0
  3  4  2  0
  4  5  1  0
  4  6  1  0
  6  7  1  0
  7  8  2  0
  7  9  1  0
  9 10  2  0
 10 11  1  0
 11 12  2  3
 12 13  1  0
 13 14  1  1
 13 15  1  0
 11 16  1  0
  8  2  1  0
 16  6  2  0
M  END
>  <Energy>  (136) 
-29.286378958291227

>  <Energy_Delta>  (136) 
7.9006537865794506

>  <std_smi>  (136) 
CC(=O)Nc1ccc2nc(C)cc(O)c2c1

>  <enum_smi>  (136) 
C=c1cc(O)c2c(n1)C=CC(=NC(C)O)C=2

>  <enum_code>  (136) 
T

>  <parent_uuid>  (136) 
ea1addea-57d6-4931-9057-ca9db5b0445d

>  <o3da_score>  (136) 
86.226699828634281

>  <o3da_score_rel>  (136) 
0.34328102040191366

>  <o3da_align>  (136) 
0.17027275360790906

>  <RMSD>  (136) 
6.4730534456837916e-05

>  <CONVERGED>  (136) 
0

>  <ENERGY>  (136) 
-29.286378958548241

$$$$
cbc3348e-b79f-43cd-8af9-1cc920456ad5
     RDKit          3D

 16 17  0  0  0  0  0  0  0  0999 V2000
    1.2209   32.0848   -0.3664 C   0  0  0  0  0  0  0  0  0  0  0  0
   -0.0128   32.0920    0.4962 C   0  0  0  0  0  0  0  0  0  0  0  0
   -0.3969   33.1158    1.0522 O   0  0  0  0  0  0  0  0  0  0  0  0
   -0.6534   30.8799    0.5244 N   0  0  0  0  0  0  0  0  0  0  0  0
   -1.2713   30.4713    1.5863 C   0  0  0  0  0  0  0  0  0  0  0  0
   -1.3499   31.1250    2.9226 C   0  0  0  0  0  0  0  0  0  0  0  0
   -2.0828   30.6189    3.9194 C   0  0  0  0  0  0  0  0  0  0  0  0
   -2.8774   29.3864    3.7518 C   0  0  0  0  0  0  0  0  0  0  0  0
   -3.6647   29.0057    4.6986 N   0  0  0  0  0  0  0  0  0  0  0  0
   -4.5408   27.8512    4.4307 C   0  0  2  0  0  0  0  0  0  0  0  0
   -5.0408   27.3285    5.7739 C   0  0  0  0  0  0  0  0  0  0  0  0
   -3.8375   26.7446    3.6529 C   0  0  0  0  0  0  0  0  0  0  0  0
   -3.2894   27.3076    2.3689 C   0  0  0  0  0  0  0  0  0  0  0  0
   -3.2604   26.6624    1.3247 O   0  0  0  0  0  0  0  0  0  0  0  0
   -2.6971   28.6617    2.4789 C   0  0  0  0  0  0  0  0  0  0  0  0
   -1.9632   29.1604    1.4791 C   0  0  0  0  0  0  0  0  0  0  0  0
  1  2  1  0
  2  3  2  0
  2  4  1  0
  4  5  2  3
  5  6  1  0
  6  7  2  0
  7  8  1  0
  8  9  2  0
  9 10  1  0
 10 11  1  1
 10 12  1  0
 12 13  1  0
 13 14  2  0
 13 15  1  0
 15 16  2  0
 16  5  1  0
 15  8  1  0
M  END
>  <Energy>  (137) 
-15.51031583749705

>  <Energy_Delta>  (137) 
0

>  <std_smi>  (137) 
CC(=O)Nc1ccc2nc(C)cc(O)c2c1

>  <enum_smi>  (137) 
CC(=O)N=C1C=CC2=NC(C)CC(=O)C2=C1

>  <enum_code>  (137) 
T

>  <parent_uuid>  (137) 
ea1addea-57d6-4931-9057-ca9db5b0445d

>  <o3da_score>  (137) 
92.604150603469776

>  <o3da_score_rel>  (137) 
0.36867057855384811

>  <o3da_align>  (137) 
0.35213645547635503

>  <RMSD>  (137) 
7.2154616854789037e-05

>  <CONVERGED>  (137) 
0

>  <ENERGY>  (137) 
-15.51031583753773

$$$$
cbc3348e-b79f-43cd-8af9-1cc920456ad5
     RDKit          3D

 16 17  0  0  0  0  0  0  0  0999 V2000
    0.3402   32.4284   -0.9066 C   0  0  0  0  0  0  0  0  0  0  0  0
   -0.0126   32.0935    0.5180 C   0  0  0  0  0  0  0  0  0  0  0  0
    0.1433   32.9074    1.4226 O   0  0  0  0  0  0  0  0  0  0  0  0
   -0.4485   30.8025    0.6724 N   0  0  0  0  0  0  0  0  0  0  0  0
   -1.3459   30.4974    1.5544 C   0  0  0  0  0  0  0  0  0  0  0  0
   -2.1010   31.4063    2.4615 C   0  0  0  0  0  0  0  0  0  0  0  0
   -2.9599   30.9449    3.3760 C   0  0  0  0  0  0  0  0  0  0  0  0
   -3.2006   29.5000    3.5571 C   0  0  0  0  0  0  0  0  0  0  0  0
   -3.9412   29.0978    4.5323 N   0  0  0  0  0  0  0  0  0  0  0  0
   -4.0377   27.6444    4.7574 C   0  0  1  0  0  0  0  0  0  0  0  0
   -5.2563   27.3931    5.6402 C   0  0  0  0  0  0  0  0  0  0  0  0
   -4.1434   26.8519    3.4593 C   0  0  0  0  0  0  0  0  0  0  0  0
   -2.9675   27.1782    2.5780 C   0  0  0  0  0  0  0  0  0  0  0  0
   -2.4342   26.3430    1.8531 O   0  0  0  0  0  0  0  0  0  0  0  0
   -2.5616   28.6037    2.5741 C   0  0  0  0  0  0  0  0  0  0  0  0
   -1.7042   29.0587    1.6551 C   0  0  0  0  0  0  0  0  0  0  0  0
  1  2  1  0
  2  3  2  0
  2  4  1  0
  4  5  2  3
  5  6  1  0
  6  7  2  0
  7  8  1  0
  8  9  2  0
  9 10  1  0
 10 11  1  1
 10 12  1  0
 12 13  1  0
 13 14  2  0
 13 15  1  0
 15 16  2  0
 16  5  1  0
 15  8  1  0
M  END
>  <Energy>  (138) 
-15.510315837374788

>  <Energy_Delta>  (138) 
1.2226131218540104e-10

>  <std_smi>  (138) 
CC(=O)Nc1ccc2nc(C)cc(O)c2c1

>  <enum_smi>  (138) 
CC(=O)N=C1C=CC2=NC(C)CC(=O)C2=C1

>  <enum_code>  (138) 
T

>  <parent_uuid>  (138) 
ea1addea-57d6-4931-9057-ca9db5b0445d

>  <o3da_score>  (138) 
90.051620133488811

>  <o3da_score_rel>  (138) 
0.35850858388069629

>  <o3da_align>  (138) 
0.45969508777610285

>  <RMSD>  (138) 
6.3171475981681528e-05

>  <CONVERGED>  (138) 
0

>  <ENERGY>  (138) 
-15.510315837539828

$$$$
cbc3348e-b79f-43cd-8af9-1cc920456ad5
     RDKit          3D

 16 17  0  0  0  0  0  0  0  0999 V2000
   -8.0924   22.8353    3.3941 C   0  0  0  0  0  0  0  0  0  0  0  0
   -6.9823   23.8041    3.0860 C   0  0  0  0  0  0  0  0  0  0  0  0
   -7.1642   24.7746    2.3580 O   0  0  0  0  0  0  0  0  0  0  0  0
   -5.7832   23.4415    3.6433 N   0  0  0  0  0  0  0  0  0  0  0  0
   -4.9659   24.3306    4.1100 C   0  0  0  0  0  0  0  0  0  0  0  0
   -5.1468   25.8073    4.1862 C   0  0  0  0  0  0  0  0  0  0  0  0
   -4.2428   26.6053    4.7631 C   0  0  0  0  0  0  0  0  0  0  0  0
   -3.0178   26.0695    5.3882 C   0  0  0  0  0  0  0  0  0  0  0  0
   -2.2369   26.8648    6.0353 N   0  0  0  0  0  0  0  0  0  0  0  0
   -1.1019   26.2657    6.7601 C   0  0  2  0  0  0  0  0  0  0  0  0
   -0.1029   27.3798    7.0569 C   0  0  0  0  0  0  0  0  0  0  0  0
   -0.4321   25.1382    5.9824 C   0  0  0  0  0  0  0  0  0  0  0  0
   -1.4590   24.0928    5.6393 C   0  0  0  0  0  0  0  0  0  0  0  0
   -1.2035   22.8920    5.6336 O   0  0  0  0  0  0  0  0  0  0  0  0
   -2.7773   24.6235    5.2191 C   0  0  0  0  0  0  0  0  0  0  0  0
   -3.6750   23.8198    4.6404 C   0  0  0  0  0  0  0  0  0  0  0  0
  1  2  1  0
  2  3  2  0
  2  4  1  0
  4  5  2  3
  5  6  1  0
  6  7  2  0
  7  8  1  0
  8  9  2  0
  9 10  1  0
 10 11  1  6
 10 12  1  0
 12 13  1  0
 13 14  2  0
 13 15  1  0
 15 16  2  0
 16  5  1  0
 15  8  1  0
M  END
>  <Energy>  (139) 
-15.502173476864741

>  <Energy_Delta>  (139) 
0.0081423606323092201

>  <std_smi>  (139) 
CC(=O)Nc1ccc2nc(C)cc(O)c2c1

>  <enum_smi>  (139) 
CC(=O)N=C1C=CC2=NC(C)CC(=O)C2=C1

>  <enum_code>  (139) 
T

>  <parent_uuid>  (139) 
ea1addea-57d6-4931-9057-ca9db5b0445d

>  <o3da_score>  (139) 
71.552803341797784

>  <o3da_score_rel>  (139) 
0.2848621064311333

>  <o3da_align>  (139) 
0.11029415887890549

>  <RMSD>  (139) 
6.259112099880372e-05

>  <CONVERGED>  (139) 
0

>  <ENERGY>  (139) 
-15.502173476961241

$$$$
cbc3348e-b79f-43cd-8af9-1cc920456ad5
     RDKit          3D

 16 17  0  0  0  0  0  0  0  0999 V2000
   -2.4604   20.7958    3.0860 C   0  0  0  0  0  0  0  0  0  0  0  0
   -3.3557   21.6935    3.8974 C   0  0  0  0  0  0  0  0  0  0  0  0
   -4.5353   21.4161    4.0889 O   0  0  0  0  0  0  0  0  0  0  0  0
   -2.6970   22.7741    4.4246 N   0  0  0  0  0  0  0  0  0  0  0  0
   -3.2729   23.9302    4.5152 C   0  0  0  0  0  0  0  0  0  0  0  0
   -4.6355   24.3251    4.0618 C   0  0  0  0  0  0  0  0  0  0  0  0
   -5.0827   25.5804    4.1658 C   0  0  0  0  0  0  0  0  0  0  0  0
   -4.2447   26.6644    4.7157 C   0  0  0  0  0  0  0  0  0  0  0  0
   -4.6864   27.8738    4.6953 N   0  0  0  0  0  0  0  0  0  0  0  0
   -3.8028   28.9620    5.1470 C   0  0  2  0  0  0  0  0  0  0  0  0
   -3.0402   29.5109    3.9413 C   0  0  0  0  0  0  0  0  0  0  0  0
   -2.8785   28.5590    6.2920 C   0  0  0  0  0  0  0  0  0  0  0  0
   -2.1388   27.2888    5.9699 C   0  0  0  0  0  0  0  0  0  0  0  0
   -0.9870   27.0843    6.3427 O   0  0  0  0  0  0  0  0  0  0  0  0
   -2.9299   26.2649    5.2504 C   0  0  0  0  0  0  0  0  0  0  0  0
   -2.4765   25.0112    5.1519 C   0  0  0  0  0  0  0  0  0  0  0  0
  1  2  1  0
  2  3  2  0
  2  4  1  0
  4  5  2  3
  5  6  1  0
  6  7  2  0
  7  8  1  0
  8  9  2  0
  9 10  1  0
 10 11  1  6
 10 12  1  0
 12 13  1  0
 13 14  2  0
 13 15  1  0
 15 16  2  0
 16  5  1  0
 15  8  1  0
M  END
>  <Energy>  (140) 
-15.094865931444497

>  <Energy_Delta>  (140) 
0.41544990605255272

>  <std_smi>  (140) 
CC(=O)Nc1ccc2nc(C)cc(O)c2c1

>  <enum_smi>  (140) 
CC(=O)N=C1C=CC2=NC(C)CC(=O)C2=C1

>  <enum_code>  (140) 
T

>  <parent_uuid>  (140) 
ea1addea-57d6-4931-9057-ca9db5b0445d

>  <o3da_score>  (140) 
80.039931301359616

>  <o3da_score_rel>  (140) 
0.3186505959828636

>  <o3da_align>  (140) 
0.42258405157402629

>  <RMSD>  (140) 
6.6448246052338536e-05

>  <CONVERGED>  (140) 
0

>  <ENERGY>  (140) 
-15.094865931472626

$$$$
cbc3348e-b79f-43cd-8af9-1cc920456ad5
     RDKit          3D

 16 17  0  0  0  0  0  0  0  0999 V2000
   -3.8270   20.3668    5.3982 C   0  0  0  0  0  0  0  0  0  0  0  0
   -4.0249   21.5498    4.4888 C   0  0  0  0  0  0  0  0  0  0  0  0
   -4.8230   21.5142    3.5579 O   0  0  0  0  0  0  0  0  0  0  0  0
   -3.1897   22.5971    4.7809 N   0  0  0  0  0  0  0  0  0  0  0  0
   -3.5913   23.8234    4.6744 C   0  0  0  0  0  0  0  0  0  0  0  0
   -4.9411   24.3272    4.2969 C   0  0  0  0  0  0  0  0  0  0  0  0
   -5.2347   25.6312    4.2849 C   0  0  0  0  0  0  0  0  0  0  0  0
   -4.2455   26.6575    4.6692 C   0  0  0  0  0  0  0  0  0  0  0  0
   -4.6123   27.8897    4.7414 N   0  0  0  0  0  0  0  0  0  0  0  0
   -3.6490   28.8918    5.2281 C   0  0  1  0  0  0  0  0  0  0  0  0
   -3.8127   29.0396    6.7407 C   0  0  0  0  0  0  0  0  0  0  0  0
   -2.2085   28.5988    4.8198 C   0  0  0  0  0  0  0  0  0  0  0  0
   -1.8230   27.1866    5.1682 C   0  0  0  0  0  0  0  0  0  0  0  0
   -0.6896   26.8830    5.5299 O   0  0  0  0  0  0  0  0  0  0  0  0
   -2.8821   26.1743    4.9556 C   0  0  0  0  0  0  0  0  0  0  0  0
   -2.5802   24.8721    4.9676 C   0  0  0  0  0  0  0  0  0  0  0  0
  1  2  1  0
  2  3  2  0
  2  4  1  0
  4  5  2  3
  5  6  1  0
  6  7  2  0
  7  8  1  0
  8  9  2  0
  9 10  1  0
 10 11  1  1
 10 12  1  0
 12 13  1  0
 13 14  2  0
 13 15  1  0
 15 16  2  0
 16  5  1  0
 15  8  1  0
M  END
>  <Energy>  (141) 
-15.094865931405005

>  <Energy_Delta>  (141) 
0.41544990609204469

>  <std_smi>  (141) 
CC(=O)Nc1ccc2nc(C)cc(O)c2c1

>  <enum_smi>  (141) 
CC(=O)N=C1C=CC2=NC(C)CC(=O)C2=C1

>  <enum_code>  (141) 
T

>  <parent_uuid>  (141) 
ea1addea-57d6-4931-9057-ca9db5b0445d

>  <o3da_score>  (141) 
70.862907072573847

>  <o3da_score_rel>  (141) 
0.28211552914426813

>  <o3da_align>  (141) 
0.19946651845881105

>  <RMSD>  (141) 
6.2100603130667417e-05

>  <CONVERGED>  (141) 
0

>  <ENERGY>  (141) 
-15.094865931543222

$$$$
cbc3348e-b79f-43cd-8af9-1cc920456ad5
     RDKit          3D

 16 17  0  0  0  0  0  0  0  0999 V2000
    0.2869   32.5686   -0.8434 C   0  0  0  0  0  0  0  0  0  0  0  0
    0.1164   32.0075    0.5431 C   0  0  0  0  0  0  0  0  0  0  0  0
    0.5605   32.5906    1.5268 O   0  0  0  0  0  0  0  0  0  0  0  0
   -0.5121   30.7888    0.5540 N   0  0  0  0  0  0  0  0  0  0  0  0
   -1.2965   30.4460    1.5253 C   0  0  0  0  0  0  0  0  0  0  0  0
   -1.7206   31.2528    2.7032 C   0  0  0  0  0  0  0  0  0  0  0  0
   -2.5000   30.7494    3.6654 C   0  0  0  0  0  0  0  0  0  0  0  0
   -2.9799   29.3536    3.6295 C   0  0  0  0  0  0  0  0  0  0  0  0
   -3.6348   28.8865    4.6350 N   0  0  0  0  0  0  0  0  0  0  0  0
   -4.0151   27.4637    4.6354 C   0  0  2  0  0  0  0  0  0  0  0  0
   -2.9087   26.6564    5.3141 C   0  0  0  0  0  0  0  0  0  0  0  0
   -4.3668   26.9292    3.2504 C   0  0  0  0  0  0  0  0  0  0  0  0
   -3.2892   27.2546    2.2516 C   0  0  0  0  0  0  0  0  0  0  0  0
   -3.0068   26.5048    1.3209 O   0  0  0  0  0  0  0  0  0  0  0  0
   -2.6612   28.5858    2.4115 C   0  0  0  0  0  0  0  0  0  0  0  0
   -1.8838   29.0834    1.4444 C   0  0  0  0  0  0  0  0  0  0  0  0
  1  2  1  0
  2  3  2  0
  2  4  1  0
  4  5  2  3
  5  6  1  0
  6  7  2  0
  7  8  1  0
  8  9  2  0
  9 10  1  0
 10 11  1  6
 10 12  1  0
 12 13  1  0
 13 14  2  0
 13 15  1  0
 15 16  2  0
 16  5  1  0
 15  8  1  0
M  END
>  <Energy>  (142) 
-15.081123645920316

>  <Energy_Delta>  (142) 
0.42919219157673361

>  <std_smi>  (142) 
CC(=O)Nc1ccc2nc(C)cc(O)c2c1

>  <enum_smi>  (142) 
CC(=O)N=C1C=CC2=NC(C)CC(=O)C2=C1

>  <enum_code>  (142) 
T

>  <parent_uuid>  (142) 
ea1addea-57d6-4931-9057-ca9db5b0445d

>  <o3da_score>  (142) 
94.652245970501042

>  <o3da_score_rel>  (142) 
0.37682434378981561

>  <o3da_align>  (142) 
0.45986557378332621

>  <RMSD>  (142) 
7.2137283169187416e-05

>  <CONVERGED>  (142) 
0

>  <ENERGY>  (142) 
-15.081123646029763

$$$$
cbc3348e-b79f-43cd-8af9-1cc920456ad5
     RDKit          3D

 16 17  0  0  0  0  0  0  0  0999 V2000
    0.1159   32.5297   -0.9319 C   0  0  0  0  0  0  0  0  0  0  0  0
   -0.0402   32.1223    0.5083 C   0  0  0  0  0  0  0  0  0  0  0  0
    0.1946   32.9014    1.4257 O   0  0  0  0  0  0  0  0  0  0  0  0
   -0.3962   30.8071    0.6636 N   0  0  0  0  0  0  0  0  0  0  0  0
   -1.2587   30.4645    1.5669 C   0  0  0  0  0  0  0  0  0  0  0  0
   -1.5300   29.0078    1.6960 C   0  0  0  0  0  0  0  0  0  0  0  0
   -2.3318   28.5052    2.6378 C   0  0  0  0  0  0  0  0  0  0  0  0
   -2.9910   29.3789    3.6274 C   0  0  0  0  0  0  0  0  0  0  0  0
   -3.6448   28.8467    4.6026 N   0  0  0  0  0  0  0  0  0  0  0  0
   -4.1656   29.7536    5.6408 C   0  0  2  0  0  0  0  0  0  0  0  0
   -5.2193   28.9894    6.4363 C   0  0  0  0  0  0  0  0  0  0  0  0
   -4.7557   31.0329    5.0593 C   0  0  0  0  0  0  0  0  0  0  0  0
   -3.7162   31.7291    4.2218 C   0  0  0  0  0  0  0  0  0  0  0  0
   -3.6458   32.9525    4.1472 O   0  0  0  0  0  0  0  0  0  0  0  0
   -2.8536   30.8340    3.4114 C   0  0  0  0  0  0  0  0  0  0  0  0
   -2.0492   31.3436    2.4707 C   0  0  0  0  0  0  0  0  0  0  0  0
  1  2  1  0
  2  3  2  0
  2  4  1  0
  4  5  2  3
  5  6  1  0
  6  7  2  0
  7  8  1  0
  8  9  2  0
  9 10  1  0
 10 11  1  6
 10 12  1  0
 12 13  1  0
 13 14  2  0
 13 15  1  0
 15 16  2  0
 16  5  1  0
 15  8  1  0
M  END
>  <Energy>  (143) 
-14.916143636906654

>  <Energy_Delta>  (143) 
0.59417220059039622

>  <std_smi>  (143) 
CC(=O)Nc1ccc2nc(C)cc(O)c2c1

>  <enum_smi>  (143) 
CC(=O)N=C1C=CC2=NC(C)CC(=O)C2=C1

>  <enum_code>  (143) 
T

>  <parent_uuid>  (143) 
ea1addea-57d6-4931-9057-ca9db5b0445d

>  <o3da_score>  (143) 
85.156012686714575

>  <o3da_score_rel>  (143) 
0.33901845932350222

>  <o3da_align>  (143) 
0.4407180212894099

>  <RMSD>  (143) 
5.7611519918177651e-05

>  <CONVERGED>  (143) 
0

>  <ENERGY>  (143) 
-14.916143637294178

$$$$
cbc3348e-b79f-43cd-8af9-1cc920456ad5
     RDKit          3D

 16 17  0  0  0  0  0  0  0  0999 V2000
   -0.5296   33.1047   -0.7036 C   0  0  0  0  0  0  0  0  0  0  0  0
   -0.3236   32.3116    0.5583 C   0  0  0  0  0  0  0  0  0  0  0  0
   -0.0461   32.8544    1.6222 O   0  0  0  0  0  0  0  0  0  0  0  0
   -0.4105   30.9565    0.3688 N   0  0  0  0  0  0  0  0  0  0  0  0
   -1.0770   30.2225    1.2022 C   0  0  0  0  0  0  0  0  0  0  0  0
   -1.0536   28.7574    0.9479 C   0  0  0  0  0  0  0  0  0  0  0  0
   -1.7470   27.8858    1.6841 C   0  0  0  0  0  0  0  0  0  0  0  0
   -2.6142   28.3354    2.7898 C   0  0  0  0  0  0  0  0  0  0  0  0
   -3.3509   27.4733    3.4022 N   0  0  0  0  0  0  0  0  0  0  0  0
   -4.3027   27.9776    4.4079 C   0  0  1  0  0  0  0  0  0  0  0  0
   -4.7067   26.8023    5.2926 C   0  0  0  0  0  0  0  0  0  0  0  0
   -3.7272   29.1098    5.2506 C   0  0  0  0  0  0  0  0  0  0  0  0
   -3.2748   30.2199    4.3410 C   0  0  0  0  0  0  0  0  0  0  0  0
   -3.4189   31.4055    4.6240 O   0  0  0  0  0  0  0  0  0  0  0  0
   -2.5698   29.7761    3.1139 C   0  0  0  0  0  0  0  0  0  0  0  0
   -1.8683   30.6540    2.3864 C   0  0  0  0  0  0  0  0  0  0  0  0
  1  2  1  0
  2  3  2  0
  2  4  1  0
  4  5  2  3
  5  6  1  0
  6  7  2  0
  7  8  1  0
  8  9  2  0
  9 10  1  0
 10 11  1  1
 10 12  1  0
 12 13  1  0
 13 14  2  0
 13 15  1  0
 15 16  2  0
 16  5  1  0
 15  8  1  0
M  END
>  <Energy>  (144) 
-14.885080974620012

>  <Energy_Delta>  (144) 
0.62523486287703811

>  <std_smi>  (144) 
CC(=O)Nc1ccc2nc(C)cc(O)c2c1

>  <enum_smi>  (144) 
CC(=O)N=C1C=CC2=NC(C)CC(=O)C2=C1

>  <enum_code>  (144) 
T

>  <parent_uuid>  (144) 
ea1addea-57d6-4931-9057-ca9db5b0445d

>  <o3da_score>  (144) 
81.952584864509475

>  <o3da_score_rel>  (144) 
0.32626514771844334

>  <o3da_align>  (144) 
0.54654406479074347

>  <RMSD>  (144) 
6.5879501492197199e-05

>  <CONVERGED>  (144) 
0

>  <ENERGY>  (144) 
-14.885080974703907

$$$$
cbc3348e-b79f-43cd-8af9-1cc920456ad5
     RDKit          3D

 16 17  0  0  0  0  0  0  0  0999 V2000
   -3.6973   28.8668    7.0358 C   0  0  0  0  0  0  0  0  0  0  0  0
   -3.9121   29.6253    5.7542 C   0  0  0  0  0  0  0  0  0  0  0  0
   -4.4069   30.7473    5.7448 O   0  0  0  0  0  0  0  0  0  0  0  0
   -3.5666   28.9116    4.6357 N   0  0  0  0  0  0  0  0  0  0  0  0
   -2.8894   29.4746    3.6861 C   0  0  0  0  0  0  0  0  0  0  0  0
   -2.6245   28.6377    2.4859 C   0  0  0  0  0  0  0  0  0  0  0  0
   -1.8963   29.0679    1.4531 C   0  0  0  0  0  0  0  0  0  0  0  0
   -1.2795   30.4086    1.4526 C   0  0  0  0  0  0  0  0  0  0  0  0
   -0.5077   30.7419    0.4773 N   0  0  0  0  0  0  0  0  0  0  0  0
    0.1883   32.0385    0.5285 C   0  0  2  0  0  0  0  0  0  0  0  0
    1.5610   31.8359    1.1697 C   0  0  0  0  0  0  0  0  0  0  0  0
   -0.6218   33.1359    1.2112 C   0  0  0  0  0  0  0  0  0  0  0  0
   -1.1218   32.6785    2.5543 C   0  0  0  0  0  0  0  0  0  0  0  0
   -1.1925   33.4307    3.5218 O   0  0  0  0  0  0  0  0  0  0  0  0
   -1.5978   31.2762    2.6040 C   0  0  0  0  0  0  0  0  0  0  0  0
   -2.3350   30.8546    3.6389 C   0  0  0  0  0  0  0  0  0  0  0  0
  1  2  1  0
  2  3  2  0
  2  4  1  0
  4  5  2  3
  5  6  1  0
  6  7  2  0
  7  8  1  0
  8  9  2  0
  9 10  1  0
 10 11  1  1
 10 12  1  0
 12 13  1  0
 13 14  2  0
 13 15  1  0
 15 16  2  0
 16  5  1  0
 15  8  1  0
M  END
>  <Energy>  (145) 
-14.492061887268667

>  <Energy_Delta>  (145) 
1.0182539502283827

>  <std_smi>  (145) 
CC(=O)Nc1ccc2nc(C)cc(O)c2c1

>  <enum_smi>  (145) 
CC(=O)N=C1C=CC2=NC(C)CC(=O)C2=C1

>  <enum_code>  (145) 
T

>  <parent_uuid>  (145) 
ea1addea-57d6-4931-9057-ca9db5b0445d

>  <o3da_score>  (145) 
92.984913758513059

>  <o3da_score_rel>  (145) 
0.37018645199739258

>  <o3da_align>  (145) 
0.25173044005702577

>  <RMSD>  (145) 
7.2807897025552887e-05

>  <CONVERGED>  (145) 
0

>  <ENERGY>  (145) 
-14.492061887562549

$$$$
cbc3348e-b79f-43cd-8af9-1cc920456ad5
     RDKit          3D

 16 17  0  0  0  0  0  0  0  0999 V2000
    0.2595   24.4959    7.1783 C   0  0  0  0  0  0  0  0  0  0  0  0
   -0.4553   25.0437    5.9730 C   0  0  0  0  0  0  0  0  0  0  0  0
   -0.0908   26.0769    5.4223 O   0  0  0  0  0  0  0  0  0  0  0  0
   -1.4802   24.2434    5.5385 N   0  0  0  0  0  0  0  0  0  0  0  0
   -2.6188   24.7641    5.2070 C   0  0  0  0  0  0  0  0  0  0  0  0
   -3.6422   23.8212    4.6831 C   0  0  0  0  0  0  0  0  0  0  0  0
   -4.8762   24.2075    4.3513 C   0  0  0  0  0  0  0  0  0  0  0  0
   -5.3129   25.6080    4.5125 C   0  0  0  0  0  0  0  0  0  0  0  0
   -6.5402   25.9126    4.2696 N   0  0  0  0  0  0  0  0  0  0  0  0
   -6.9995   27.2873    4.5293 C   0  0  1  0  0  0  0  0  0  0  0  0
   -7.5615   27.3590    5.9490 C   0  0  0  0  0  0  0  0  0  0  0  0
   -5.9313   28.3441    4.2671 C   0  0  0  0  0  0  0  0  0  0  0  0
   -4.6510   28.0027    4.9796 C   0  0  0  0  0  0  0  0  0  0  0  0
   -3.9293   28.8585    5.4832 O   0  0  0  0  0  0  0  0  0  0  0  0
   -4.2837   26.5674    4.9598 C   0  0  0  0  0  0  0  0  0  0  0  0
   -3.0417   26.1886    5.2855 C   0  0  0  0  0  0  0  0  0  0  0  0
  1  2  1  0
  2  3  2  0
  2  4  1  0
  4  5  2  3
  5  6  1  0
  6  7  2  0
  7  8  1  0
  8  9  2  0
  9 10  1  0
 10 11  1  1
 10 12  1  0
 12 13  1  0
 13 14  2  0
 13 15  1  0
 15 16  2  0
 16  5  1  0
 15  8  1  0
M  END
>  <Energy>  (146) 
-14.492061887265621

>  <Energy_Delta>  (146) 
1.0182539502314292

>  <std_smi>  (146) 
CC(=O)Nc1ccc2nc(C)cc(O)c2c1

>  <enum_smi>  (146) 
CC(=O)N=C1C=CC2=NC(C)CC(=O)C2=C1

>  <enum_code>  (146) 
T

>  <parent_uuid>  (146) 
ea1addea-57d6-4931-9057-ca9db5b0445d

>  <o3da_score>  (146) 
75.947309027306048

>  <o3da_score_rel>  (146) 
0.30235727206870677

>  <o3da_align>  (146) 
0.27927243991898765

>  <RMSD>  (146) 
7.0270817530738828e-05

>  <CONVERGED>  (146) 
0

>  <ENERGY>  (146) 
-14.492061887589275

$$$$
cbc3348e-b79f-43cd-8af9-1cc920456ad5
     RDKit          3D

 16 17  0  0  0  0  0  0  0  0999 V2000
   -5.0400   29.3356    6.4549 C   0  0  0  0  0  0  0  0  0  0  0  0
   -3.6683   29.5245    5.8658 C   0  0  0  0  0  0  0  0  0  0  0  0
   -2.7925   30.1427    6.4612 O   0  0  0  0  0  0  0  0  0  0  0  0
   -3.5035   28.8883    4.6622 N   0  0  0  0  0  0  0  0  0  0  0  0
   -2.8514   29.4625    3.7018 C   0  0  0  0  0  0  0  0  0  0  0  0
   -2.6754   28.6637    2.4599 C   0  0  0  0  0  0  0  0  0  0  0  0
   -1.9661   29.1014    1.4170 C   0  0  0  0  0  0  0  0  0  0  0  0
   -1.2972   30.4167    1.4414 C   0  0  0  0  0  0  0  0  0  0  0  0
   -0.5236   30.7444    0.4654 N   0  0  0  0  0  0  0  0  0  0  0  0
    0.2218   32.0115    0.5488 C   0  0  2  0  0  0  0  0  0  0  0  0
    1.5753   31.7486    1.2086 C   0  0  0  0  0  0  0  0  0  0  0  0
   -0.5601   33.1275    1.2335 C   0  0  0  0  0  0  0  0  0  0  0  0
   -1.1072   32.6772    2.5614 C   0  0  0  0  0  0  0  0  0  0  0  0
   -1.2363   33.4463    3.5099 O   0  0  0  0  0  0  0  0  0  0  0  0
   -1.5773   31.2722    2.6116 C   0  0  0  0  0  0  0  0  0  0  0  0
   -2.2841   30.8375    3.6623 C   0  0  0  0  0  0  0  0  0  0  0  0
  1  2  1  0
  2  3  2  0
  2  4  1  0
  4  5  2  3
  5  6  1  0
  6  7  2  0
  7  8  1  0
  8  9  2  0
  9 10  1  0
 10 11  1  1
 10 12  1  0
 12 13  1  0
 13 14  2  0
 13 15  1  0
 15 16  2  0
 16  5  1  0
 15  8  1  0
M  END
>  <Energy>  (147) 
-14.449539048985544

>  <Energy_Delta>  (147) 
1.0607767885115056

>  <std_smi>  (147) 
CC(=O)Nc1ccc2nc(C)cc(O)c2c1

>  <enum_smi>  (147) 
CC(=O)N=C1C=CC2=NC(C)CC(=O)C2=C1

>  <enum_code>  (147) 
T

>  <parent_uuid>  (147) 
ea1addea-57d6-4931-9057-ca9db5b0445d

>  <o3da_score>  (147) 
92.896254731024882

>  <o3da_score_rel>  (147) 
0.36983348752717088

>  <o3da_align>  (147) 
0.25651039495025274

>  <RMSD>  (147) 
7.1608971612735034e-05

>  <CONVERGED>  (147) 
0

>  <ENERGY>  (147) 
-14.449539049500926

$$$$
0eb1446d-af7a-42a7-8342-c29c2f5568c1
     RDKit          3D

 16 17  0  0  0  0  0  0  0  0999 V2000
   -4.5187   30.3495    4.9679 C   0  0  0  0  0  0  0  0  0  0  0  0
   -3.7891   29.0407    5.1433 C   0  0  0  0  0  0  0  0  0  0  0  0
   -2.6735   29.0079    5.6500 O   0  0  0  0  0  0  0  0  0  0  0  0
   -4.5351   27.9623    4.7033 N   0  0  0  0  0  0  0  0  0  0  0  0
   -4.1690   26.6006    4.7192 C   0  0  0  0  0  0  0  0  0  0  0  0
   -2.9421   26.1251    5.1907 C   0  0  0  0  0  0  0  0  0  0  0  0
   -2.6474   24.7540    5.1745 C   0  0  0  0  0  0  0  0  0  0  0  0
   -3.5762   23.8364    4.6865 C   0  0  0  0  0  0  0  0  0  0  0  0
   -3.2998   22.4650    4.6592 N   0  0  0  0  0  0  0  0  0  0  0  0
   -4.2082   21.5445    4.1811 C   0  0  0  0  0  0  0  0  0  0  0  0
   -3.7938   20.0995    4.2116 C   0  0  0  0  0  0  0  0  0  0  0  0
   -5.4122   21.9064    3.7065 C   0  0  0  0  0  0  0  0  0  0  0  0
   -5.7896   23.3411    3.6923 C   0  0  0  0  0  0  0  0  0  0  0  0
   -6.8822   23.6948    3.2627 O   0  0  0  0  0  0  0  0  0  0  0  0
   -4.8037   24.3171    4.2130 C   0  0  0  0  0  0  0  0  0  0  0  0
   -5.1032   25.6845    4.2268 C   0  0  0  0  0  0  0  0  0  0  0  0
  1  2  1  0
  2  3  2  0
  2  4  1  0
  4  5  1  0
  5  6  2  0
  6  7  1  0
  7  8  2  0
  8  9  1  0
  9 10  1  0
 10 11  1  0
 10 12  2  0
 12 13  1  0
 13 14  2  0
 13 15  1  0
 15 16  2  0
 16  5  1  0
 15  8  1  0
M  END
>  <Energy>  (148) 
14.009585570239608

>  <Energy_Delta>  (148) 
0

>  <std_smi>  (148) 
CC(=O)Nc1ccc2nc(C)cc(O)c2c1

>  <enum_smi>  (148) 
CC(=O)Nc1ccc2[nH]c(C)cc(=O)c2c1

>  <enum_code>  (148) 
T

>  <parent_uuid>  (148) 
ea1addea-57d6-4931-9057-ca9db5b0445d

>  <o3da_score>  (148) 
83.448502940442495

>  <o3da_score_rel>  (148) 
0.33222061492946403

>  <o3da_align>  (148) 
0.16167287042925632

>  <RMSD>  (148) 
5.987677441536813e-05

>  <CONVERGED>  (148) 
0

>  <ENERGY>  (148) 
14.009585570175915

$$$$
0eb1446d-af7a-42a7-8342-c29c2f5568c1
     RDKit          3D

 16 17  0  0  0  0  0  0  0  0999 V2000
   -5.6264   23.4262    4.1399 C   0  0  0  0  0  0  0  0  0  0  0  0
   -4.8130   24.5562    3.5588 C   0  0  0  0  0  0  0  0  0  0  0  0
   -4.2164   24.4166    2.4984 O   0  0  0  0  0  0  0  0  0  0  0  0
   -4.8705   25.6969    4.3392 N   0  0  0  0  0  0  0  0  0  0  0  0
   -4.2362   26.9343    4.1017 C   0  0  0  0  0  0  0  0  0  0  0  0
   -4.4656   27.9532    5.0384 C   0  0  0  0  0  0  0  0  0  0  0  0
   -3.8802   29.2161    4.8907 C   0  0  0  0  0  0  0  0  0  0  0  0
   -3.0542   29.4833    3.8002 C   0  0  0  0  0  0  0  0  0  0  0  0
   -2.4529   30.7373    3.6411 N   0  0  0  0  0  0  0  0  0  0  0  0
   -1.6364   31.0258    2.5688 C   0  0  0  0  0  0  0  0  0  0  0  0
   -1.0661   32.4151    2.4996 C   0  0  0  0  0  0  0  0  0  0  0  0
   -1.3533   30.1173    1.6208 C   0  0  0  0  0  0  0  0  0  0  0  0
   -1.9340   28.7548    1.7139 C   0  0  0  0  0  0  0  0  0  0  0  0
   -1.6757   27.9189    0.8559 O   0  0  0  0  0  0  0  0  0  0  0  0
   -2.8215   28.4614    2.8670 C   0  0  0  0  0  0  0  0  0  0  0  0
   -3.4066   27.1950    3.0108 C   0  0  0  0  0  0  0  0  0  0  0  0
  1  2  1  0
  2  3  2  0
  2  4  1  0
  4  5  1  0
  5  6  2  0
  6  7  1  0
  7  8  2  0
  8  9  1  0
  9 10  1  0
 10 11  1  0
 10 12  2  0
 12 13  1  0
 13 14  2  0
 13 15  1  0
 15 16  2  0
 16  5  1  0
 15  8  1  0
M  END
>  <Energy>  (149) 
17.081273378544331

>  <Energy_Delta>  (149) 
3.0716878083047234

>  <std_smi>  (149) 
CC(=O)Nc1ccc2nc(C)cc(O)c2c1

>  <enum_smi>  (149) 
CC(=O)Nc1ccc2[nH]c(C)cc(=O)c2c1

>  <enum_code>  (149) 
T

>  <parent_uuid>  (149) 
ea1addea-57d6-4931-9057-ca9db5b0445d

>  <o3da_score>  (149) 
85.053625403816525

>  <o3da_score_rel>  (149) 
0.33861084067383485

>  <o3da_align>  (149) 
0.42977312324534517

>  <RMSD>  (149) 
0.028742191634129218

>  <CONVERGED>  (149) 
0

>  <ENERGY>  (149) 
17.081273378352513

$$$$
12d07189-ea3c-45f2-bf0e-c0cb40855638
     RDKit          3D

 16 17  0  0  0  0  0  0  0  0999 V2000
   -3.1894   20.1125    4.4599 C   0  0  0  0  0  0  0  0  0  0  0  0
   -3.9514   21.4076    4.3257 C   0  0  0  0  0  0  0  0  0  0  0  0
   -5.1219   21.4117    3.9625 O   0  0  0  0  0  0  0  0  0  0  0  0
   -3.1867   22.5046    4.6804 N   0  0  0  0  0  0  0  0  0  0  0  0
   -3.5774   23.8592    4.6786 C   0  0  0  0  0  0  0  0  0  0  0  0
   -4.8395   24.3103    4.2915 C   0  0  0  0  0  0  0  0  0  0  0  0
   -5.1464   25.6781    4.3185 C   0  0  0  0  0  0  0  0  0  0  0  0
   -4.2049   26.6221    4.7301 C   0  0  0  0  0  0  0  0  0  0  0  0
   -2.9468   26.1644    5.1145 C   0  0  0  0  0  0  0  0  0  0  0  0
   -2.6279   24.7983    5.0917 C   0  0  0  0  0  0  0  0  0  0  0  0
   -1.9436   27.1476    5.5506 C   0  0  0  0  0  0  0  0  0  0  0  0
   -0.8227   26.7805    5.8963 O   0  0  0  0  0  0  0  0  0  0  0  0
   -2.3376   28.5917    5.5563 C   0  0  0  0  0  0  0  0  0  0  0  0
   -3.7406   28.8779    5.1055 C   0  0  0  0  0  0  0  0  0  0  0  0
   -4.1814   30.3191    5.0940 C   0  0  0  0  0  0  0  0  0  0  0  0
   -4.5850   27.9708    4.7303 N   0  0  0  0  0  0  0  0  0  0  0  0
  1  2  1  0
  2  3  2  0
  2  4  1  0
  4  5  1  0
  5  6  2  0
  6  7  1  0
  7  8  2  0
  8  9  1  0
  9 10  2  0
  9 11  1  0
 11 12  2  0
 11 13  1  0
 13 14  1  0
 14 15  1  0
 14 16  2  0
 10  5  1  0
 16  8  1  0
M  END
>  <Energy>  (150) 
1.5384559159730733

>  <Energy_Delta>  (150) 
0

>  <std_smi>  (150) 
CC(=O)Nc1ccc2nc(C)cc(O)c2c1

>  <enum_smi>  (150) 
CC(=O)Nc1ccc2c(c1)C(=O)CC(C)=N2

>  <enum_code>  (150) 
T

>  <parent_uuid>  (150) 
ea1addea-57d6-4931-9057-ca9db5b0445d

>  <o3da_score>  (150) 
70.176729085372784

>  <o3da_score_rel>  (150) 
0.27938375487838712

>  <o3da_align>  (150) 
0.13016771609736602

>  <RMSD>  (150) 
0.017109093172121378

>  <CONVERGED>  (150) 
0

>  <ENERGY>  (150) 
1.5384559159709563

$$$$
12d07189-ea3c-45f2-bf0e-c0cb40855638
     RDKit          3D

 16 17  0  0  0  0  0  0  0  0999 V2000
   -5.0111   25.7501    4.6417 C   0  0  0  0  0  0  0  0  0  0  0  0
   -4.3371   27.0511    4.2825 C   0  0  0  0  0  0  0  0  0  0  0  0
   -4.5208   28.0583    4.9548 O   0  0  0  0  0  0  0  0  0  0  0  0
   -3.5624   26.9424    3.1417 N   0  0  0  0  0  0  0  0  0  0  0  0
   -2.7986   27.9527    2.5219 C   0  0  0  0  0  0  0  0  0  0  0  0
   -2.1075   27.5996    1.3567 C   0  0  0  0  0  0  0  0  0  0  0  0
   -1.3249   28.5392    0.6774 C   0  0  0  0  0  0  0  0  0  0  0  0
   -1.2124   29.8496    1.1432 C   0  0  0  0  0  0  0  0  0  0  0  0
   -1.9017   30.1964    2.3054 C   0  0  0  0  0  0  0  0  0  0  0  0
   -2.6910   29.2606    2.9953 C   0  0  0  0  0  0  0  0  0  0  0  0
   -1.7835   31.5787    2.8010 C   0  0  0  0  0  0  0  0  0  0  0  0
   -2.3659   31.9358    3.8218 O   0  0  0  0  0  0  0  0  0  0  0  0
   -0.9321   32.5302    2.0200 C   0  0  0  0  0  0  0  0  0  0  0  0
   -0.2752   31.9574    0.7993 C   0  0  0  0  0  0  0  0  0  0  0  0
    0.5945   32.8811   -0.0141 C   0  0  0  0  0  0  0  0  0  0  0  0
   -0.4095   30.7308    0.4069 N   0  0  0  0  0  0  0  0  0  0  0  0
  1  2  1  0
  2  3  2  0
  2  4  1  0
  4  5  1  0
  5  6  2  0
  6  7  1  0
  7  8  2  0
  8  9  1  0
  9 10  2  0
  9 11  1  0
 11 12  2  0
 11 13  1  0
 13 14  1  0
 14 15  1  0
 14 16  2  0
 10  5  1  0
 16  8  1  0
M  END
>  <Energy>  (151) 
3.3384949909098132

>  <Energy_Delta>  (151) 
1.8000390749367399

>  <std_smi>  (151) 
CC(=O)Nc1ccc2nc(C)cc(O)c2c1

>  <enum_smi>  (151) 
CC(=O)Nc1ccc2c(c1)C(=O)CC(C)=N2

>  <enum_code>  (151) 
T

>  <parent_uuid>  (151) 
ea1addea-57d6-4931-9057-ca9db5b0445d

>  <o3da_score>  (151) 
78.031822252932898

>  <o3da_score_rel>  (151) 
0.3106560220911081

>  <o3da_align>  (151) 
0.56770500044181527

>  <RMSD>  (151) 
0.024361850353652736

>  <CONVERGED>  (151) 
0

>  <ENERGY>  (151) 
3.3384949908859207

$$$$
4787e69a-18ed-40dc-83ed-48f5235ba8a9
     RDKit          3D

 16 17  0  0  0  0  0  0  0  0999 V2000
   -5.3610   27.7446    7.2225 C   0  0  0  0  0  0  0  0  0  0  0  0
   -5.1037   28.4174    5.9139 C   0  0  0  0  0  0  0  0  0  0  0  0
   -5.4202   29.7196    5.9013 O   0  0  0  0  0  0  0  0  0  0  0  0
   -4.6234   27.9255    4.8224 N   0  0  0  0  0  0  0  0  0  0  0  0
   -4.2694   26.5715    4.7980 C   0  0  0  0  0  0  0  0  0  0  0  0
   -5.1662   25.6256    4.2903 C   0  0  0  0  0  0  0  0  0  0  0  0
   -4.8233   24.2703    4.2346 C   0  0  0  0  0  0  0  0  0  0  0  0
   -3.5672   23.8470    4.6718 C   0  0  0  0  0  0  0  0  0  0  0  0
   -3.2105   22.4931    4.6462 N   0  0  0  0  0  0  0  0  0  0  0  0
   -1.9667   22.0573    5.0525 C   0  0  0  0  0  0  0  0  0  0  0  0
   -1.6860   20.5855    4.9265 C   0  0  0  0  0  0  0  0  0  0  0  0
   -1.0375   22.8959    5.5411 C   0  0  0  0  0  0  0  0  0  0  0  0
   -1.3417   24.3442    5.6447 C   0  0  0  0  0  0  0  0  0  0  0  0
   -0.5141   25.1208    6.1077 O   0  0  0  0  0  0  0  0  0  0  0  0
   -2.6692   24.8030    5.1727 C   0  0  0  0  0  0  0  0  0  0  0  0
   -3.0085   26.1581    5.2268 C   0  0  0  0  0  0  0  0  0  0  0  0
  1  2  1  0
  2  3  1  0
  2  4  2  3
  4  5  1  0
  5  6  2  0
  6  7  1  0
  7  8  2  0
  8  9  1  0
  9 10  1  0
 10 11  1  0
 10 12  2  0
 12 13  1  0
 13 14  2  0
 13 15  1  0
 15 16  2  0
 16  5  1  0
 15  8  1  0
M  END
>  <Energy>  (152) 
1.5499924529116462

>  <Energy_Delta>  (152) 
0

>  <std_smi>  (152) 
CC(=O)Nc1ccc2nc(C)cc(O)c2c1

>  <enum_smi>  (152) 
CC(O)=Nc1ccc2[nH]c(C)cc(=O)c2c1

>  <enum_code>  (152) 
T

>  <parent_uuid>  (152) 
ea1addea-57d6-4931-9057-ca9db5b0445d

>  <o3da_score>  (152) 
75.424741616867379

>  <o3da_score_rel>  (152) 
0.30027685528085934

>  <o3da_align>  (152) 
0.10224864448793307

>  <RMSD>  (152) 
7.4984822597881005e-05

>  <CONVERGED>  (152) 
0

>  <ENERGY>  (152) 
1.549992452856404

$$$$
4787e69a-18ed-40dc-83ed-48f5235ba8a9
     RDKit          3D

 16 17  0  0  0  0  0  0  0  0999 V2000
   -3.0192   28.6101    3.1048 C   0  0  0  0  0  0  0  0  0  0  0  0
   -3.9146   28.8388    4.2783 C   0  0  0  0  0  0  0  0  0  0  0  0
   -4.2233   30.1268    4.4830 O   0  0  0  0  0  0  0  0  0  0  0  0
   -4.4135   27.9833    5.1048 N   0  0  0  0  0  0  0  0  0  0  0  0
   -4.1057   26.6287    4.9322 C   0  0  0  0  0  0  0  0  0  0  0  0
   -4.9934   25.7943    4.2447 C   0  0  0  0  0  0  0  0  0  0  0  0
   -4.7166   24.4325    4.0816 C   0  0  0  0  0  0  0  0  0  0  0  0
   -3.5521   23.8847    4.6221 C   0  0  0  0  0  0  0  0  0  0  0  0
   -3.2435   22.5294    4.4523 N   0  0  0  0  0  0  0  0  0  0  0  0
   -2.1098   21.9643    4.9974 C   0  0  0  0  0  0  0  0  0  0  0  0
   -1.9177   20.4875    4.7900 C   0  0  0  0  0  0  0  0  0  0  0  0
   -1.2082   22.6859    5.6843 C   0  0  0  0  0  0  0  0  0  0  0  0
   -1.4306   24.1397    5.8794 C   0  0  0  0  0  0  0  0  0  0  0  0
   -0.6085   24.8177    6.4850 O   0  0  0  0  0  0  0  0  0  0  0  0
   -2.6698   24.7266    5.3177 C   0  0  0  0  0  0  0  0  0  0  0  0
   -2.9455   26.0870    5.4845 C   0  0  0  0  0  0  0  0  0  0  0  0
  1  2  1  0
  2  3  1  0
  2  4  2  3
  4  5  1  0
  5  6  2  0
  6  7  1  0
  7  8  2  0
  8  9  1  0
  9 10  1  0
 10 11  1  0
 10 12  2  0
 12 13  1  0
 13 14  2  0
 13 15  1  0
 15 16  2  0
 16  5  1  0
 15  8  1  0
M  END
>  <Energy>  (153) 
1.5499924531376481

>  <Energy_Delta>  (153) 
2.2600188387400522e-10

>  <std_smi>  (153) 
CC(=O)Nc1ccc2nc(C)cc(O)c2c1

>  <enum_smi>  (153) 
CC(O)=Nc1ccc2[nH]c(C)cc(=O)c2c1

>  <enum_code>  (153) 
T

>  <parent_uuid>  (153) 
ea1addea-57d6-4931-9057-ca9db5b0445d

>  <o3da_score>  (153) 
84.673573959076421

>  <o3da_score_rel>  (153) 
0.33709780065241585

>  <o3da_align>  (153) 
0.40816536186322933

>  <RMSD>  (153) 
6.3785770735965826e-05

>  <CONVERGED>  (153) 
0

>  <ENERGY>  (153) 
1.5499924528810387

$$$$
4787e69a-18ed-40dc-83ed-48f5235ba8a9
     RDKit          3D

 16 17  0  0  0  0  0  0  0  0999 V2000
   -2.1932   20.5876    3.5055 C   0  0  0  0  0  0  0  0  0  0  0  0
   -2.5793   22.0276    3.5832 C   0  0  0  0  0  0  0  0  0  0  0  0
   -2.2363   22.7142    2.4766 O   0  0  0  0  0  0  0  0  0  0  0  0
   -3.1818   22.5298    4.6090 N   0  0  0  0  0  0  0  0  0  0  0  0
   -3.5265   23.8833    4.6442 C   0  0  0  0  0  0  0  0  0  0  0  0
   -4.8107   24.2856    4.2642 C   0  0  0  0  0  0  0  0  0  0  0  0
   -5.1808   25.6341    4.3074 C   0  0  0  0  0  0  0  0  0  0  0  0
   -4.2720   26.5964    4.7510 C   0  0  0  0  0  0  0  0  0  0  0  0
   -4.6103   27.9554    4.7707 N   0  0  0  0  0  0  0  0  0  0  0  0
   -3.7369   28.9172    5.2351 C   0  0  0  0  0  0  0  0  0  0  0  0
   -4.2453   30.3315    5.2848 C   0  0  0  0  0  0  0  0  0  0  0  0
   -2.4864   28.6215    5.6278 C   0  0  0  0  0  0  0  0  0  0  0  0
   -2.0187   27.2147    5.5794 C   0  0  0  0  0  0  0  0  0  0  0  0
   -0.8708   26.9297    5.9002 O   0  0  0  0  0  0  0  0  0  0  0  0
   -2.9844   26.1846    5.1303 C   0  0  0  0  0  0  0  0  0  0  0  0
   -2.6127   24.8374    5.0899 C   0  0  0  0  0  0  0  0  0  0  0  0
  1  2  1  0
  2  3  1  0
  2  4  2  3
  4  5  1  0
  5  6  2  0
  6  7  1  0
  7  8  2  0
  8  9  1  0
  9 10  1  0
 10 11  1  0
 10 12  2  0
 12 13  1  0
 13 14  2  0
 13 15  1  0
 15 16  2  0
 16  5  1  0
 15  8  1  0
M  END
>  <Energy>  (154) 
5.1527523114066565

>  <Energy_Delta>  (154) 
3.60275985849501

>  <std_smi>  (154) 
CC(=O)Nc1ccc2nc(C)cc(O)c2c1

>  <enum_smi>  (154) 
CC(O)=Nc1ccc2[nH]c(C)cc(=O)c2c1

>  <enum_code>  (154) 
T

>  <parent_uuid>  (154) 
ea1addea-57d6-4931-9057-ca9db5b0445d

>  <o3da_score>  (154) 
76.344746340656997

>  <o3da_score_rel>  (154) 
0.30393952775916061

>  <o3da_align>  (154) 
0.14634172061427103

>  <RMSD>  (154) 
6.2033747025622927e-05

>  <CONVERGED>  (154) 
0

>  <ENERGY>  (154) 
5.15275231133859

$$$$
4787e69a-18ed-40dc-83ed-48f5235ba8a9
     RDKit          3D

 16 17  0  0  0  0  0  0  0  0999 V2000
   -2.1976   20.6129    3.4162 C   0  0  0  0  0  0  0  0  0  0  0  0
   -2.6264   22.0390    3.5221 C   0  0  0  0  0  0  0  0  0  0  0  0
   -2.4210   22.7256    2.3818 O   0  0  0  0  0  0  0  0  0  0  0  0
   -3.1290   22.5337    4.6038 N   0  0  0  0  0  0  0  0  0  0  0  0
   -3.5189   23.8740    4.6634 C   0  0  0  0  0  0  0  0  0  0  0  0
   -2.6396   24.8336    5.1749 C   0  0  0  0  0  0  0  0  0  0  0  0
   -3.0167   26.1783    5.2578 C   0  0  0  0  0  0  0  0  0  0  0  0
   -4.2897   26.5760    4.8457 C   0  0  0  0  0  0  0  0  0  0  0  0
   -4.6761   27.9216    4.8888 N   0  0  0  0  0  0  0  0  0  0  0  0
   -5.9401   28.3293    4.5154 C   0  0  0  0  0  0  0  0  0  0  0  0
   -6.2628   29.7881    4.6853 C   0  0  0  0  0  0  0  0  0  0  0  0
   -6.8523   27.4761    4.0204 C   0  0  0  0  0  0  0  0  0  0  0  0
   -6.5081   26.0404    3.8774 C   0  0  0  0  0  0  0  0  0  0  0  0
   -7.3141   25.2528    3.3956 O   0  0  0  0  0  0  0  0  0  0  0  0
   -5.1666   25.6068    4.3328 C   0  0  0  0  0  0  0  0  0  0  0  0
   -4.7929   24.2620    4.2507 C   0  0  0  0  0  0  0  0  0  0  0  0
  1  2  1  0
  2  3  1  0
  2  4  2  3
  4  5  1  0
  5  6  2  0
  6  7  1  0
  7  8  2  0
  8  9  1  0
  9 10  1  0
 10 11  1  0
 10 12  2  0
 12 13  1  0
 13 14  2  0
 13 15  1  0
 15 16  2  0
 16  5  1  0
 15  8  1  0
M  END
>  <Energy>  (155) 
5.1527523114707368

>  <Energy_Delta>  (155) 
3.6027598585590903

>  <std_smi>  (155) 
CC(=O)Nc1ccc2nc(C)cc(O)c2c1

>  <enum_smi>  (155) 
CC(O)=Nc1ccc2[nH]c(C)cc(=O)c2c1

>  <enum_code>  (155) 
T

>  <parent_uuid>  (155) 
ea1addea-57d6-4931-9057-ca9db5b0445d

>  <o3da_score>  (155) 
76.533551816503959

>  <o3da_score_rel>  (155) 
0.30469118979116488

>  <o3da_align>  (155) 
0.1247359344863727

>  <RMSD>  (155) 
5.8707156057575397e-05

>  <CONVERGED>  (155) 
0

>  <ENERGY>  (155) 
5.1527523113786575

$$$$
2dbd1417-30cb-402d-ae57-90e0d8a78c1e
     RDKit          3D

 16 17  0  0  0  0  0  0  0  0999 V2000
   -2.3466   22.7913    2.2271 C   0  0  0  0  0  0  0  0  0  0  0  0
   -2.6119   22.0753    3.5110 C   0  0  0  0  0  0  0  0  0  0  0  0
   -2.2458   20.7863    3.4998 O   0  0  0  0  0  0  0  0  0  0  0  0
   -3.1364   22.5217    4.6016 N   0  0  0  0  0  0  0  0  0  0  0  0
   -3.5368   23.8613    4.6519 C   0  0  0  0  0  0  0  0  0  0  0  0
   -2.6698   24.8347    5.1518 C   0  0  0  0  0  0  0  0  0  0  0  0
   -3.0737   26.1714    5.2287 C   0  0  0  0  0  0  0  0  0  0  0  0
   -4.3530   26.5575    4.8206 C   0  0  0  0  0  0  0  0  0  0  0  0
   -5.2181   25.5735    4.3395 C   0  0  0  0  0  0  0  0  0  0  0  0
   -4.8223   24.2322    4.2591 C   0  0  0  0  0  0  0  0  0  0  0  0
   -6.5687   25.9715    3.9143 C   0  0  0  0  0  0  0  0  0  0  0  0
   -7.3510   25.1403    3.4596 O   0  0  0  0  0  0  0  0  0  0  0  0
   -6.9488   27.4121    4.0577 C   0  0  0  0  0  0  0  0  0  0  0  0
   -5.8690   28.3149    4.5791 C   0  0  0  0  0  0  0  0  0  0  0  0
   -6.1971   29.7803    4.7074 C   0  0  0  0  0  0  0  0  0  0  0  0
   -4.6868   27.9145    4.9242 N   0  0  0  0  0  0  0  0  0  0  0  0
  1  2  1  0
  2  3  1  0
  2  4  2  3
  4  5  1  0
  5  6  2  0
  6  7  1  0
  7  8  2  0
  8  9  1  0
  9 10  2  0
  9 11  1  0
 11 12  2  0
 11 13  1  0
 13 14  1  0
 14 15  1  0
 14 16  2  0
 10  5  1  0
 16  8  1  0
M  END
>  <Energy>  (156) 
-11.52144757414449

>  <Energy_Delta>  (156) 
0

>  <std_smi>  (156) 
CC(=O)Nc1ccc2nc(C)cc(O)c2c1

>  <enum_smi>  (156) 
CC(O)=Nc1ccc2c(c1)C(=O)CC(C)=N2

>  <enum_code>  (156) 
T

>  <parent_uuid>  (156) 
ea1addea-57d6-4931-9057-ca9db5b0445d

>  <o3da_score>  (156) 
79.328895575676711

>  <o3da_score_rel>  (156) 
0.31581985944835944

>  <o3da_align>  (156) 
0.12963320474925338

>  <RMSD>  (156) 
7.4469080456659531e-05

>  <CONVERGED>  (156) 
0

>  <ENERGY>  (156) 
-11.521447574198946

$$$$
2dbd1417-30cb-402d-ae57-90e0d8a78c1e
     RDKit          3D

 16 17  0  0  0  0  0  0  0  0999 V2000
   -2.2721   22.7099    2.2941 C   0  0  0  0  0  0  0  0  0  0  0  0
   -2.6367   22.0325    3.5745 C   0  0  0  0  0  0  0  0  0  0  0  0
   -2.3389   20.7262    3.6019 O   0  0  0  0  0  0  0  0  0  0  0  0
   -3.1844   22.5266    4.6327 N   0  0  0  0  0  0  0  0  0  0  0  0
   -3.5059   23.8882    4.6458 C   0  0  0  0  0  0  0  0  0  0  0  0
   -4.7859   24.3106    4.2822 C   0  0  0  0  0  0  0  0  0  0  0  0
   -5.1212   25.6678    4.3182 C   0  0  0  0  0  0  0  0  0  0  0  0
   -4.1900   26.6248    4.7296 C   0  0  0  0  0  0  0  0  0  0  0  0
   -2.9190   26.1899    5.1084 C   0  0  0  0  0  0  0  0  0  0  0  0
   -2.5744   24.8325    5.0758 C   0  0  0  0  0  0  0  0  0  0  0  0
   -1.9356   27.1909    5.5489 C   0  0  0  0  0  0  0  0  0  0  0  0
   -0.7976   26.8521    5.8646 O   0  0  0  0  0  0  0  0  0  0  0  0
   -2.3717   28.6219    5.5989 C   0  0  0  0  0  0  0  0  0  0  0  0
   -3.7740   28.8852    5.1332 C   0  0  0  0  0  0  0  0  0  0  0  0
   -4.2439   30.3172    5.1343 C   0  0  0  0  0  0  0  0  0  0  0  0
   -4.5961   27.9659    4.7378 N   0  0  0  0  0  0  0  0  0  0  0  0
  1  2  1  0
  2  3  1  0
  2  4  2  3
  4  5  1  0
  5  6  2  0
  6  7  1  0
  7  8  2  0
  8  9  1  0
  9 10  2  0
  9 11  1  0
 11 12  2  0
 11 13  1  0
 13 14  1  0
 14 15  1  0
 14 16  2  0
 10  5  1  0
 16  8  1  0
M  END
>  <Energy>  (157) 
-11.521447574125562

>  <Energy_Delta>  (157) 
1.8928858480649069e-11

>  <std_smi>  (157) 
CC(=O)Nc1ccc2nc(C)cc(O)c2c1

>  <enum_smi>  (157) 
CC(O)=Nc1ccc2c(c1)C(=O)CC(C)=N2

>  <enum_code>  (157) 
T

>  <parent_uuid>  (157) 
ea1addea-57d6-4931-9057-ca9db5b0445d

>  <o3da_score>  (157) 
79.105605202255745

>  <o3da_score_rel>  (157) 
0.31493090802859952

>  <o3da_align>  (157) 
0.15389864604673667

>  <RMSD>  (157) 
6.621343677756351e-05

>  <CONVERGED>  (157) 
0

>  <ENERGY>  (157) 
-11.521447574203059

$$$$
2dbd1417-30cb-402d-ae57-90e0d8a78c1e
     RDKit          3D

 16 17  0  0  0  0  0  0  0  0999 V2000
   -5.0319   23.3563    4.6679 C   0  0  0  0  0  0  0  0  0  0  0  0
   -4.3616   24.6859    4.5610 C   0  0  0  0  0  0  0  0  0  0  0  0
   -3.1268   24.6863    5.0983 O   0  0  0  0  0  0  0  0  0  0  0  0
   -4.9294   25.7069    4.0108 N   0  0  0  0  0  0  0  0  0  0  0  0
   -4.2700   26.9351    3.9287 C   0  0  0  0  0  0  0  0  0  0  0  0
   -4.4086   27.8781    4.9485 C   0  0  0  0  0  0  0  0  0  0  0  0
   -3.7649   29.1163    4.8598 C   0  0  0  0  0  0  0  0  0  0  0  0
   -2.9829   29.4391    3.7475 C   0  0  0  0  0  0  0  0  0  0  0  0
   -2.8638   28.4947    2.7268 C   0  0  0  0  0  0  0  0  0  0  0  0
   -3.5028   27.2506    2.8083 C   0  0  0  0  0  0  0  0  0  0  0  0
   -2.0474   28.8309    1.5503 C   0  0  0  0  0  0  0  0  0  0  0  0
   -1.8801   28.0099    0.6519 O   0  0  0  0  0  0  0  0  0  0  0  0
   -1.4404   30.1978    1.4902 C   0  0  0  0  0  0  0  0  0  0  0  0
   -1.6602   31.0535    2.7037 C   0  0  0  0  0  0  0  0  0  0  0  0
   -1.0167   32.4164    2.7129 C   0  0  0  0  0  0  0  0  0  0  0  0
   -2.3656   30.6966    3.7296 N   0  0  0  0  0  0  0  0  0  0  0  0
  1  2  1  0
  2  3  1  0
  2  4  2  3
  4  5  1  0
  5  6  2  0
  6  7  1  0
  7  8  2  0
  8  9  1  0
  9 10  2  0
  9 11  1  0
 11 12  2  0
 11 13  1  0
 13 14  1  0
 14 15  1  0
 14 16  2  0
 10  5  1  0
 16  8  1  0
M  END
>  <Energy>  (158) 
-7.7505839012257827

>  <Energy_Delta>  (158) 
3.7708636729187077

>  <std_smi>  (158) 
CC(=O)Nc1ccc2nc(C)cc(O)c2c1

>  <enum_smi>  (158) 
CC(O)=Nc1ccc2c(c1)C(=O)CC(C)=N2

>  <enum_code>  (158) 
T

>  <parent_uuid>  (158) 
ea1addea-57d6-4931-9057-ca9db5b0445d

>  <o3da_score>  (158) 
86.140987979958723

>  <o3da_score_rel>  (158) 
0.34293978907875788

>  <o3da_align>  (158) 
0.43973672768731814

>  <RMSD>  (158) 
7.071351971403743e-05

>  <CONVERGED>  (158) 
0

>  <ENERGY>  (158) 
-7.750583901224287

$$$$
2dbd1417-30cb-402d-ae57-90e0d8a78c1e
     RDKit          3D

 16 17  0  0  0  0  0  0  0  0999 V2000
   -2.2982   20.5433    3.5203 C   0  0  0  0  0  0  0  0  0  0  0  0
   -2.6626   21.9898    3.5791 C   0  0  0  0  0  0  0  0  0  0  0  0
   -2.3949   22.6369    2.4289 O   0  0  0  0  0  0  0  0  0  0  0  0
   -3.1792   22.5330    4.6306 N   0  0  0  0  0  0  0  0  0  0  0  0
   -3.5064   23.8904    4.6480 C   0  0  0  0  0  0  0  0  0  0  0  0
   -4.7794   24.3127    4.2615 C   0  0  0  0  0  0  0  0  0  0  0  0
   -5.1160   25.6695    4.2963 C   0  0  0  0  0  0  0  0  0  0  0  0
   -4.1933   26.6256    4.7289 C   0  0  0  0  0  0  0  0  0  0  0  0
   -2.9285   26.1905    5.1277 C   0  0  0  0  0  0  0  0  0  0  0  0
   -2.5815   24.8336    5.0935 C   0  0  0  0  0  0  0  0  0  0  0  0
   -1.9548   27.1912    5.5903 C   0  0  0  0  0  0  0  0  0  0  0  0
   -0.8164   26.8544    5.9061 O   0  0  0  0  0  0  0  0  0  0  0  0
   -2.4025   28.6176    5.6645 C   0  0  0  0  0  0  0  0  0  0  0  0
   -3.7909   28.8834    5.1597 C   0  0  0  0  0  0  0  0  0  0  0  0
   -4.2629   30.3148    5.1595 C   0  0  0  0  0  0  0  0  0  0  0  0
   -4.6000   27.9662    4.7337 N   0  0  0  0  0  0  0  0  0  0  0  0
  1  2  1  0
  2  3  1  0
  2  4  2  3
  4  5  1  0
  5  6  2  0
  6  7  1  0
  7  8  2  0
  8  9  1  0
  9 10  2  0
  9 11  1  0
 11 12  2  0
 11 13  1  0
 13 14  1  0
 14 15  1  0
 14 16  2  0
 10  5  1  0
 16  8  1  0
M  END
>  <Energy>  (159) 
-7.7505839012166371

>  <Energy_Delta>  (159) 
3.7708636729278533

>  <std_smi>  (159) 
CC(=O)Nc1ccc2nc(C)cc(O)c2c1

>  <enum_smi>  (159) 
CC(O)=Nc1ccc2c(c1)C(=O)CC(C)=N2

>  <enum_code>  (159) 
T

>  <parent_uuid>  (159) 
ea1addea-57d6-4931-9057-ca9db5b0445d

>  <o3da_score>  (159) 
79.031895150629936

>  <o3da_score_rel>  (159) 
0.31463745760331047

>  <o3da_align>  (159) 
0.15743252466319219

>  <RMSD>  (159) 
6.7488884021584059e-05

>  <CONVERGED>  (159) 
0

>  <ENERGY>  (159) 
-7.750583901246797

$$$$
3aeb73a7-fc58-4d66-a9cb-a6e67e80dfe8
     RDKit          3D

 16 17  0  0  0  0  0  0  0  0999 V2000
   -6.6983   22.9028    6.0262 C   0  0  0  0  0  0  0  0  0  0  0  0
   -6.6322   22.7693    4.5397 C   0  0  0  0  0  0  0  0  0  0  0  0
   -7.5011   21.8827    4.0350 O   0  0  0  0  0  0  0  0  0  0  0  0
   -5.8658   23.3764    3.6981 N   0  0  0  0  0  0  0  0  0  0  0  0
   -4.9382   24.3025    4.1880 C   0  0  0  0  0  0  0  0  0  0  0  0
   -3.6718   23.8943    4.5902 C   0  0  0  0  0  0  0  0  0  0  0  0
   -2.7544   24.8324    5.0705 C   0  0  0  0  0  0  0  0  0  0  0  0
   -3.0589   26.1842    5.1433 C   0  0  0  0  0  0  0  0  0  0  0  0
   -2.1276   27.0196    5.6329 N   0  0  0  0  0  0  0  0  0  0  0  0
   -2.4097   28.3406    5.7155 C   0  0  0  0  0  0  0  0  0  0  0  0
   -1.3469   29.2370    6.2757 C   0  0  0  0  0  0  0  0  0  0  0  0
   -3.6186   28.8701    5.3005 C   0  0  0  0  0  0  0  0  0  0  0  0
   -4.5695   28.0037    4.7814 C   0  0  0  0  0  0  0  0  0  0  0  0
   -5.7333   28.5902    4.3599 O   0  0  0  0  0  0  0  0  0  0  0  0
   -4.3260   26.6193    4.7021 C   0  0  0  0  0  0  0  0  0  0  0  0
   -5.2567   25.6609    4.2298 C   0  0  0  0  0  0  0  0  0  0  0  0
  1  2  1  0
  2  3  1  0
  2  4  2  3
  4  5  1  0
  5  6  2  0
  6  7  1  0
  7  8  2  0
  8  9  1  0
  9 10  2  0
 10 11  1  0
 10 12  1  0
 12 13  2  0
 13 14  1  0
 13 15  1  0
 15 16  2  0
 16  5  1  0
 15  8  1  0
M  END
>  <Energy>  (160) 
-5.9990844329256525

>  <Energy_Delta>  (160) 
0

>  <std_smi>  (160) 
CC(=O)Nc1ccc2nc(C)cc(O)c2c1

>  <enum_smi>  (160) 
CC(O)=Nc1ccc2nc(C)cc(O)c2c1

>  <enum_code>  (160) 
T

>  <parent_uuid>  (160) 
ea1addea-57d6-4931-9057-ca9db5b0445d

>  <o3da_score>  (160) 
67.77008394483893

>  <o3da_score_rel>  (160) 
0.26980255089830135

>  <o3da_align>  (160) 
0.19244649304554856

>  <RMSD>  (160) 
0.08796119500142803

>  <CONVERGED>  (160) 
0

>  <ENERGY>  (160) 
-5.5339617534900256

$$$$
3aeb73a7-fc58-4d66-a9cb-a6e67e80dfe8
     RDKit          3D

 16 17  0  0  0  0  0  0  0  0999 V2000
   -3.2453   28.5888    2.9605 C   0  0  0  0  0  0  0  0  0  0  0  0
   -3.9775   28.8444    4.2373 C   0  0  0  0  0  0  0  0  0  0  0  0
   -4.2784   30.1342    4.4418 O   0  0  0  0  0  0  0  0  0  0  0  0
   -4.3532   28.0084    5.1453 N   0  0  0  0  0  0  0  0  0  0  0  0
   -4.0659   26.6512    4.9626 C   0  0  0  0  0  0  0  0  0  0  0  0
   -4.9418   25.8275    4.2651 C   0  0  0  0  0  0  0  0  0  0  0  0
   -4.6441   24.4727    4.0973 C   0  0  0  0  0  0  0  0  0  0  0  0
   -3.4952   23.9039    4.6282 C   0  0  0  0  0  0  0  0  0  0  0  0
   -3.2732   22.5973    4.4080 N   0  0  0  0  0  0  0  0  0  0  0  0
   -2.1551   22.0274    4.9145 C   0  0  0  0  0  0  0  0  0  0  0  0
   -1.9407   20.5698    4.6384 C   0  0  0  0  0  0  0  0  0  0  0  0
   -1.2345   22.7359    5.6659 C   0  0  0  0  0  0  0  0  0  0  0  0
   -1.4782   24.0808    5.9026 C   0  0  0  0  0  0  0  0  0  0  0  0
   -0.5475   24.7208    6.6773 O   0  0  0  0  0  0  0  0  0  0  0  0
   -2.6160   24.7183    5.3721 C   0  0  0  0  0  0  0  0  0  0  0  0
   -2.9167   26.0944    5.5260 C   0  0  0  0  0  0  0  0  0  0  0  0
  1  2  1  0
  2  3  1  0
  2  4  2  3
  4  5  1  0
  5  6  2  0
  6  7  1  0
  7  8  2  0
  8  9  1  0
  9 10  2  0
 10 11  1  0
 10 12  1  0
 12 13  2  0
 13 14  1  0
 13 15  1  0
 15 16  2  0
 16  5  1  0
 15  8  1  0
M  END
>  <Energy>  (161) 
-5.9990844327417845

>  <Energy_Delta>  (161) 
1.8386803191106083e-10

>  <std_smi>  (161) 
CC(=O)Nc1ccc2nc(C)cc(O)c2c1

>  <enum_smi>  (161) 
CC(O)=Nc1ccc2nc(C)cc(O)c2c1

>  <enum_code>  (161) 
T

>  <parent_uuid>  (161) 
ea1addea-57d6-4931-9057-ca9db5b0445d

>  <o3da_score>  (161) 
84.94236015725275

>  <o3da_score_rel>  (161) 
0.33816787756088268

>  <o3da_align>  (161) 
0.4224598894224294

>  <RMSD>  (161) 
0.087967774611576968

>  <CONVERGED>  (161) 
0

>  <ENERGY>  (161) 
-5.5339617534942178

$$$$
3aeb73a7-fc58-4d66-a9cb-a6e67e80dfe8
     RDKit          3D

 16 17  0  0  0  0  0  0  0  0999 V2000
    1.6922   38.2885   -0.3842 C   0  0  0  0  0  0  0  0  0  0  0  0
    1.1306   36.9071   -0.3130 C   0  0  0  0  0  0  0  0  0  0  0  0
   -0.0358   36.7896   -0.9758 O   0  0  0  0  0  0  0  0  0  0  0  0
    1.7183   35.9514    0.3268 N   0  0  0  0  0  0  0  0  0  0  0  0
    1.1610   34.6715    0.3647 C   0  0  0  0  0  0  0  0  0  0  0  0
    1.4149   33.7555   -0.6495 C   0  0  0  0  0  0  0  0  0  0  0  0
    0.8431   32.4817   -0.5997 C   0  0  0  0  0  0  0  0  0  0  0  0
    0.0316   32.0837    0.4535 C   0  0  0  0  0  0  0  0  0  0  0  0
   -0.4971   30.8496    0.4177 N   0  0  0  0  0  0  0  0  0  0  0  0
   -1.2951   30.4479    1.4346 C   0  0  0  0  0  0  0  0  0  0  0  0
   -1.8708   29.0663    1.3525 C   0  0  0  0  0  0  0  0  0  0  0  0
   -1.5787   31.2562    2.5211 C   0  0  0  0  0  0  0  0  0  0  0  0
   -1.0170   32.5238    2.5583 C   0  0  0  0  0  0  0  0  0  0  0  0
   -1.3072   33.2669    3.6715 O   0  0  0  0  0  0  0  0  0  0  0  0
   -0.2035   32.9898    1.5086 C   0  0  0  0  0  0  0  0  0  0  0  0
    0.3659   34.2851    1.4441 C   0  0  0  0  0  0  0  0  0  0  0  0
  1  2  1  0
  2  3  1  0
  2  4  2  3
  4  5  1  0
  5  6  2  0
  6  7  1  0
  7  8  2  0
  8  9  1  0
  9 10  2  0
 10 11  1  0
 10 12  1  0
 12 13  2  0
 13 14  1  0
 13 15  1  0
 15 16  2  0
 16  5  1  0
 15  8  1  0
M  END
>  <Energy>  (162) 
-2.6987836486361285

>  <Energy_Delta>  (162) 
3.300300784289524

>  <std_smi>  (162) 
CC(=O)Nc1ccc2nc(C)cc(O)c2c1

>  <enum_smi>  (162) 
CC(O)=Nc1ccc2nc(C)cc(O)c2c1

>  <enum_code>  (162) 
T

>  <parent_uuid>  (162) 
ea1addea-57d6-4931-9057-ca9db5b0445d

>  <o3da_score>  (162) 
78.651041228818087

>  <o3da_score_rel>  (162) 
0.31312122280407229

>  <o3da_align>  (162) 
0.060618552388062456

>  <RMSD>  (162) 
0.096055203300347961

>  <CONVERGED>  (162) 
0

>  <ENERGY>  (162) 
-2.1897067167220801

$$$$
3aeb73a7-fc58-4d66-a9cb-a6e67e80dfe8
     RDKit          3D

 16 17  0  0  0  0  0  0  0  0999 V2000
   -6.0610   28.5192    5.3266 C   0  0  0  0  0  0  0  0  0  0  0  0
   -5.1083   29.0205    4.2921 C   0  0  0  0  0  0  0  0  0  0  0  0
   -5.7369   29.5264    3.2139 O   0  0  0  0  0  0  0  0  0  0  0  0
   -3.8270   28.9674    4.4452 N   0  0  0  0  0  0  0  0  0  0  0  0
   -2.9705   29.4434    3.4501 C   0  0  0  0  0  0  0  0  0  0  0  0
   -2.5851   28.6265    2.3937 C   0  0  0  0  0  0  0  0  0  0  0  0
   -1.7335   29.1213    1.4027 C   0  0  0  0  0  0  0  0  0  0  0  0
   -1.2343   30.4155    1.4450 C   0  0  0  0  0  0  0  0  0  0  0  0
   -0.4376   30.8229    0.4433 N   0  0  0  0  0  0  0  0  0  0  0  0
    0.0532   32.0841    0.4669 C   0  0  0  0  0  0  0  0  0  0  0  0
    0.9322   32.5015   -0.6734 C   0  0  0  0  0  0  0  0  0  0  0  0
   -0.2229   32.9705    1.4928 C   0  0  0  0  0  0  0  0  0  0  0  0
   -1.0341   32.5377    2.5313 C   0  0  0  0  0  0  0  0  0  0  0  0
   -1.2476   33.4465    3.5333 O   0  0  0  0  0  0  0  0  0  0  0  0
   -1.5864   31.2431    2.5315 C   0  0  0  0  0  0  0  0  0  0  0  0
   -2.4630   30.7410    3.5243 C   0  0  0  0  0  0  0  0  0  0  0  0
  1  2  1  0
  2  3  1  0
  2  4  2  3
  4  5  1  0
  5  6  2  0
  6  7  1  0
  7  8  2  0
  8  9  1  0
  9 10  2  0
 10 11  1  0
 10 12  1  0
 12 13  2  0
 13 14  1  0
 13 15  1  0
 15 16  2  0
 16  5  1  0
 15  8  1  0
M  END
>  <Energy>  (163) 
-2.698783648205235

>  <Energy_Delta>  (163) 
3.3003007847204175

>  <std_smi>  (163) 
CC(=O)Nc1ccc2nc(C)cc(O)c2c1

>  <enum_smi>  (163) 
CC(O)=Nc1ccc2nc(C)cc(O)c2c1

>  <enum_code>  (163) 
T

>  <parent_uuid>  (163) 
ea1addea-57d6-4931-9057-ca9db5b0445d

>  <o3da_score>  (163) 
103.35342340137998

>  <o3da_score_rel>  (163) 
0.41146499538736536

>  <o3da_align>  (163) 
0.3105963250499893

>  <RMSD>  (163) 
0.096068418785703075

>  <CONVERGED>  (163) 
0

>  <ENERGY>  (163) 
-2.1897067167311004

$$$$
89c393c0-5956-4413-83db-04720c40c2b6
     RDKit          3D

 16 17  0  0  0  0  0  0  0  0999 V2000
    0.2194   31.8287    0.0650 C   0  0  0  0  0  0  0  0  0  0  0  0
   -0.7271   31.3461    1.1312 C   0  0  0  0  0  0  0  0  0  0  0  0
   -1.2807   32.2171    1.9906 C   0  0  0  0  0  0  0  0  0  0  0  0
   -2.2077   31.7489    3.0363 C   0  0  0  0  0  0  0  0  0  0  0  0
   -2.7230   32.5286    3.8267 O   0  0  0  0  0  0  0  0  0  0  0  0
   -2.4451   30.2935    3.0365 C   0  0  0  0  0  0  0  0  0  0  0  0
   -3.2608   29.7413    3.9400 C   0  0  0  0  0  0  0  0  0  0  0  0
   -3.5184   28.2808    3.9753 C   0  0  0  0  0  0  0  0  0  0  0  0
   -4.3092   27.8513    4.8954 N   0  0  0  0  0  0  0  0  0  0  0  0
   -4.5895   26.4312    5.0060 C   0  0  1  0  0  0  0  0  0  0  0  0
   -5.3694   26.2089    6.2967 C   0  0  0  0  0  0  0  0  0  0  0  0
   -5.3612   25.9179    3.9348 O   0  0  0  0  0  0  0  0  0  0  0  0
   -2.8265   27.4774    2.9309 C   0  0  0  0  0  0  0  0  0  0  0  0
   -2.0128   28.0352    2.0293 C   0  0  0  0  0  0  0  0  0  0  0  0
   -1.7518   29.4889    2.0135 C   0  0  0  0  0  0  0  0  0  0  0  0
   -0.9489   29.9859    1.1242 N   0  0  0  0  0  0  0  0  0  0  0  0
  1  2  1  0
  2  3  2  0
  3  4  1  0
  4  5  2  0
  4  6  1  0
  6  7  2  0
  7  8  1  0
  8  9  2  3
  9 10  1  0
 10 11  1  1
 10 12  1  0
  8 13  1  0
 13 14  2  0
 14 15  1  0
 15 16  2  0
 16  2  1  0
 15  6  1  0
M  END
>  <Energy>  (164) 
-37.873619051258224

>  <Energy_Delta>  (164) 
0

>  <std_smi>  (164) 
CC(=O)Nc1ccc2nc(C)cc(O)c2c1

>  <enum_smi>  (164) 
CC1=CC(=O)C2=CC(=NC(C)O)C=CC2=N1

>  <enum_code>  (164) 
T

>  <parent_uuid>  (164) 
ea1addea-57d6-4931-9057-ca9db5b0445d

>  <o3da_score>  (164) 
73.949802174377695

>  <o3da_score_rel>  (164) 
0.29440490705768557

>  <o3da_align>  (164) 
0.70565106677034095

>  <RMSD>  (164) 
6.9133988346214051e-05

>  <CONVERGED>  (164) 
0

>  <ENERGY>  (164) 
-37.873619051317249

$$$$
89c393c0-5956-4413-83db-04720c40c2b6
     RDKit          3D

 16 17  0  0  0  0  0  0  0  0999 V2000
    0.8997   32.3502   -0.6493 C   0  0  0  0  0  0  0  0  0  0  0  0
    0.0100   32.0204    0.5192 C   0  0  0  0  0  0  0  0  0  0  0  0
   -0.1975   32.9254    1.4896 C   0  0  0  0  0  0  0  0  0  0  0  0
   -1.0680   32.6068    2.6353 C   0  0  0  0  0  0  0  0  0  0  0  0
   -1.2669   33.4185    3.5295 O   0  0  0  0  0  0  0  0  0  0  0  0
   -1.6579   31.2558    2.5984 C   0  0  0  0  0  0  0  0  0  0  0  0
   -2.4723   30.8463    3.5760 C   0  0  0  0  0  0  0  0  0  0  0  0
   -3.0895   29.4974    3.5694 C   0  0  0  0  0  0  0  0  0  0  0  0
   -3.8696   29.2094    4.5517 N   0  0  0  0  0  0  0  0  0  0  0  0
   -4.5275   27.9162    4.6003 C   0  0  2  0  0  0  0  0  0  0  0  0
   -5.5358   27.9486    5.7430 C   0  0  0  0  0  0  0  0  0  0  0  0
   -3.6416   26.8348    4.8291 O   0  0  0  0  0  0  0  0  0  0  0  0
   -2.7282   28.6273    2.4173 C   0  0  0  0  0  0  0  0  0  0  0  0
   -1.9124   29.0417    1.4432 C   0  0  0  0  0  0  0  0  0  0  0  0
   -1.3159   30.3929    1.4525 C   0  0  0  0  0  0  0  0  0  0  0  0
   -0.5351   30.7551    0.4821 N   0  0  0  0  0  0  0  0  0  0  0  0
  1  2  1  0
  2  3  2  0
  3  4  1  0
  4  5  2  0
  4  6  1  0
  6  7  2  0
  7  8  1  0
  8  9  2  3
  9 10  1  0
 10 11  1  1
 10 12  1  0
  8 13  1  0
 13 14  2  0
 14 15  1  0
 15 16  2  0
 16  2  1  0
 15  6  1  0
M  END
>  <Energy>  (165) 
-37.873619051217005

>  <Energy_Delta>  (165) 
4.1218584101443412e-11

>  <std_smi>  (165) 
CC(=O)Nc1ccc2nc(C)cc(O)c2c1

>  <enum_smi>  (165) 
CC1=CC(=O)C2=CC(=NC(C)O)C=CC2=N1

>  <enum_code>  (165) 
T

>  <parent_uuid>  (165) 
ea1addea-57d6-4931-9057-ca9db5b0445d

>  <o3da_score>  (165) 
112.42057074997604

>  <o3da_score_rel>  (165) 
0.44756262640126776

>  <o3da_align>  (165) 
0.2858472306951515

>  <RMSD>  (165) 
6.4871763286818864e-05

>  <CONVERGED>  (165) 
0

>  <ENERGY>  (165) 
-37.873619051321569

$$$$
89c393c0-5956-4413-83db-04720c40c2b6
     RDKit          3D

 16 17  0  0  0  0  0  0  0  0999 V2000
    0.7825   32.4189   -0.7401 C   0  0  0  0  0  0  0  0  0  0  0  0
   -0.0415   32.0679    0.4697 C   0  0  0  0  0  0  0  0  0  0  0  0
   -0.2622   32.9825    1.4278 C   0  0  0  0  0  0  0  0  0  0  0  0
   -1.0673   32.6428    2.6145 C   0  0  0  0  0  0  0  0  0  0  0  0
   -1.2600   33.4587    3.5068 O   0  0  0  0  0  0  0  0  0  0  0  0
   -1.5922   31.2639    2.6255 C   0  0  0  0  0  0  0  0  0  0  0  0
   -2.3506   30.8414    3.6436 C   0  0  0  0  0  0  0  0  0  0  0  0
   -2.8863   29.4566    3.6889 C   0  0  0  0  0  0  0  0  0  0  0  0
   -3.6150   28.9235    4.6046 N   0  0  0  0  0  0  0  0  0  0  0  0
   -4.0353   29.7074    5.7547 C   0  0  2  0  0  0  0  0  0  0  0  0
   -4.8513   28.7848    6.6559 C   0  0  0  0  0  0  0  0  0  0  0  0
   -4.8257   30.8458    5.4430 O   0  0  0  0  0  0  0  0  0  0  0  0
   -2.5232   28.5887    2.5387 C   0  0  0  0  0  0  0  0  0  0  0  0
   -1.7689   29.0150    1.5228 C   0  0  0  0  0  0  0  0  0  0  0  0
   -1.2436   30.3941    1.4855 C   0  0  0  0  0  0  0  0  0  0  0  0
   -0.5160   30.7744    0.4809 N   0  0  0  0  0  0  0  0  0  0  0  0
  1  2  1  0
  2  3  2  0
  3  4  1  0
  4  5  2  0
  4  6  1  0
  6  7  2  0
  7  8  1  0
  8  9  2  3
  9 10  1  0
 10 11  1  1
 10 12  1  0
  8 13  1  0
 13 14  2  0
 14 15  1  0
 15 16  2  0
 16  2  1  0
 15  6  1  0
M  END
>  <Energy>  (166) 
-37.574098030999977

>  <Energy_Delta>  (166) 
0.29952102025824701

>  <std_smi>  (166) 
CC(=O)Nc1ccc2nc(C)cc(O)c2c1

>  <enum_smi>  (166) 
CC1=CC(=O)C2=CC(=NC(C)O)C=CC2=N1

>  <enum_code>  (166) 
T

>  <parent_uuid>  (166) 
ea1addea-57d6-4931-9057-ca9db5b0445d

>  <o3da_score>  (166) 
101.49599874959758

>  <o3da_score_rel>  (166) 
0.40407031797247267

>  <o3da_align>  (166) 
0.18793904108741069

>  <RMSD>  (166) 
0.067938776130621034

>  <CONVERGED>  (166) 
0

>  <ENERGY>  (166) 
-34.73170604635434

$$$$
89c393c0-5956-4413-83db-04720c40c2b6
     RDKit          3D

 16 17  0  0  0  0  0  0  0  0999 V2000
    0.8872   32.3787   -0.6773 C   0  0  0  0  0  0  0  0  0  0  0  0
    0.0144   32.0465    0.5032 C   0  0  0  0  0  0  0  0  0  0  0  0
   -0.2110   32.9629    1.4585 C   0  0  0  0  0  0  0  0  0  0  0  0
   -1.0658   32.6422    2.6154 C   0  0  0  0  0  0  0  0  0  0  0  0
   -1.2982   33.4733    3.4838 O   0  0  0  0  0  0  0  0  0  0  0  0
   -1.6049   31.2688    2.6179 C   0  0  0  0  0  0  0  0  0  0  0  0
   -2.3829   30.8538    3.6242 C   0  0  0  0  0  0  0  0  0  0  0  0
   -2.9488   29.4806    3.6514 C   0  0  0  0  0  0  0  0  0  0  0  0
   -3.7112   28.9603    4.5468 N   0  0  0  0  0  0  0  0  0  0  0  0
   -4.0908   29.7286    5.7213 C   0  0  1  0  0  0  0  0  0  0  0  0
   -5.0114   28.8462    6.5598 C   0  0  0  0  0  0  0  0  0  0  0  0
   -3.0049   30.1472    6.5359 O   0  0  0  0  0  0  0  0  0  0  0  0
   -2.5932   28.6156    2.4966 C   0  0  0  0  0  0  0  0  0  0  0  0
   -1.8137   29.0322    1.4959 C   0  0  0  0  0  0  0  0  0  0  0  0
   -1.2537   30.3980    1.4794 C   0  0  0  0  0  0  0  0  0  0  0  0
   -0.4979   30.7675    0.4918 N   0  0  0  0  0  0  0  0  0  0  0  0
  1  2  1  0
  2  3  2  0
  3  4  1  0
  4  5  2  0
  4  6  1  0
  6  7  2  0
  7  8  1  0
  8  9  2  3
  9 10  1  0
 10 11  1  1
 10 12  1  0
  8 13  1  0
 13 14  2  0
 14 15  1  0
 15 16  2  0
 16  2  1  0
 15  6  1  0
M  END
>  <Energy>  (167) 
-37.574098030341361

>  <Energy_Delta>  (167) 
0.29952102091686328

>  <std_smi>  (167) 
CC(=O)Nc1ccc2nc(C)cc(O)c2c1

>  <enum_smi>  (167) 
CC1=CC(=O)C2=CC(=NC(C)O)C=CC2=N1

>  <enum_code>  (167) 
T

>  <parent_uuid>  (167) 
ea1addea-57d6-4931-9057-ca9db5b0445d

>  <o3da_score>  (167) 
101.51167129623207

>  <o3da_score_rel>  (167) 
0.404132712657781

>  <o3da_align>  (167) 
0.18687914327672678

>  <RMSD>  (167) 
0.067936056648588802

>  <CONVERGED>  (167) 
0

>  <ENERGY>  (167) 
-34.731706046354361

$$$$
89c393c0-5956-4413-83db-04720c40c2b6
     RDKit          3D

 16 17  0  0  0  0  0  0  0  0999 V2000
   -1.2547   32.4352    2.4310 C   0  0  0  0  0  0  0  0  0  0  0  0
   -1.7364   31.0128    2.5346 C   0  0  0  0  0  0  0  0  0  0  0  0
   -1.3506   30.0990    1.6293 C   0  0  0  0  0  0  0  0  0  0  0  0
   -1.8202   28.7061    1.7283 C   0  0  0  0  0  0  0  0  0  0  0  0
   -1.4846   27.8585    0.9113 O   0  0  0  0  0  0  0  0  0  0  0  0
   -2.7099   28.4369    2.8742 C   0  0  0  0  0  0  0  0  0  0  0  0
   -3.1952   27.2050    3.0707 C   0  0  0  0  0  0  0  0  0  0  0  0
   -4.0948   26.9017    4.2130 C   0  0  0  0  0  0  0  0  0  0  0  0
   -4.6269   25.7730    4.5215 N   0  0  0  0  0  0  0  0  0  0  0  0
   -4.3816   24.5714    3.7452 C   0  0  2  0  0  0  0  0  0  0  0  0
   -5.3719   24.4930    2.5917 C   0  0  0  0  0  0  0  0  0  0  0  0
   -4.5655   23.4116    4.5377 O   0  0  0  0  0  0  0  0  0  0  0  0
   -4.4164   28.0499    5.1004 C   0  0  0  0  0  0  0  0  0  0  0  0
   -3.9283   29.2766    4.9007 C   0  0  0  0  0  0  0  0  0  0  0  0
   -3.0295   29.5674    3.7667 C   0  0  0  0  0  0  0  0  0  0  0  0
   -2.5718   30.7697    3.6033 N   0  0  0  0  0  0  0  0  0  0  0  0
  1  2  1  0
  2  3  2  0
  3  4  1  0
  4  5  2  0
  4  6  1  0
  6  7  2  0
  7  8  1  0
  8  9  2  3
  9 10  1  0
 10 11  1  6
 10 12  1  0
  8 13  1  0
 13 14  2  0
 14 15  1  0
 15 16  2  0
 16  2  1  0
 15  6  1  0
M  END
>  <Energy>  (168) 
-35.983322024554468

>  <Energy_Delta>  (168) 
1.890297026703756

>  <std_smi>  (168) 
CC(=O)Nc1ccc2nc(C)cc(O)c2c1

>  <enum_smi>  (168) 
CC1=CC(=O)C2=CC(=NC(C)O)C=CC2=N1

>  <enum_code>  (168) 
T

>  <parent_uuid>  (168) 
ea1addea-57d6-4931-9057-ca9db5b0445d

>  <o3da_score>  (168) 
82.917429708916202

>  <o3da_score_rel>  (168) 
0.33010633523200605

>  <o3da_align>  (168) 
0.5217081963418273

>  <RMSD>  (168) 
6.692813379341601e-05

>  <CONVERGED>  (168) 
0

>  <ENERGY>  (168) 
-35.9833220246922

$$$$
89c393c0-5956-4413-83db-04720c40c2b6
     RDKit          3D

 16 17  0  0  0  0  0  0  0  0999 V2000
   -1.1928   32.2950    2.4922 C   0  0  0  0  0  0  0  0  0  0  0  0
   -1.7191   30.8875    2.5803 C   0  0  0  0  0  0  0  0  0  0  0  0
   -1.3452   29.9664    1.6773 C   0  0  0  0  0  0  0  0  0  0  0  0
   -1.8589   28.5881    1.7608 C   0  0  0  0  0  0  0  0  0  0  0  0
   -1.5274   27.7320    0.9511 O   0  0  0  0  0  0  0  0  0  0  0  0
   -2.7852   28.3439    2.8830 C   0  0  0  0  0  0  0  0  0  0  0  0
   -3.3211   27.1297    3.0573 C   0  0  0  0  0  0  0  0  0  0  0  0
   -4.2549   26.8506    4.1780 C   0  0  0  0  0  0  0  0  0  0  0  0
   -4.8411   25.7420    4.4605 N   0  0  0  0  0  0  0  0  0  0  0  0
   -4.6607   24.5508    3.6512 C   0  0  1  0  0  0  0  0  0  0  0  0
   -3.4319   23.7877    4.1255 C   0  0  0  0  0  0  0  0  0  0  0  0
   -5.7716   23.6807    3.7781 O   0  0  0  0  0  0  0  0  0  0  0  0
   -4.5379   27.9977    5.0798 C   0  0  0  0  0  0  0  0  0  0  0  0
   -4.0018   29.2074    4.9006 C   0  0  0  0  0  0  0  0  0  0  0  0
   -3.0799   29.4775    3.7801 C   0  0  0  0  0  0  0  0  0  0  0  0
   -2.5787   30.6647    3.6341 N   0  0  0  0  0  0  0  0  0  0  0  0
  1  2  1  0
  2  3  2  0
  3  4  1  0
  4  5  2  0
  4  6  1  0
  6  7  2  0
  7  8  1  0
  8  9  2  3
  9 10  1  0
 10 11  1  1
 10 12  1  0
  8 13  1  0
 13 14  2  0
 14 15  1  0
 15 16  2  0
 16  2  1  0
 15  6  1  0
M  END
>  <Energy>  (169) 
-35.983322024425824

>  <Energy_Delta>  (169) 
1.8902970268323998

>  <std_smi>  (169) 
CC(=O)Nc1ccc2nc(C)cc(O)c2c1

>  <enum_smi>  (169) 
CC1=CC(=O)C2=CC(=NC(C)O)C=CC2=N1

>  <enum_code>  (169) 
T

>  <parent_uuid>  (169) 
ea1addea-57d6-4931-9057-ca9db5b0445d

>  <o3da_score>  (169) 
93.23161618977457

>  <o3da_score_rel>  (169) 
0.37116861022109121

>  <o3da_align>  (169) 
0.46246928922433911

>  <RMSD>  (169) 
6.8458938044903229e-05

>  <CONVERGED>  (169) 
0

>  <ENERGY>  (169) 
-35.983322024736381

$$$$
89c393c0-5956-4413-83db-04720c40c2b6
     RDKit          3D

 16 17  0  0  0  0  0  0  0  0999 V2000
   -1.8324   29.0736    1.4213 C   0  0  0  0  0  0  0  0  0  0  0  0
   -1.2852   30.4742    1.4890 C   0  0  0  0  0  0  0  0  0  0  0  0
   -1.5955   31.2736    2.5227 C   0  0  0  0  0  0  0  0  0  0  0  0
   -1.0623   32.6458    2.5930 C   0  0  0  0  0  0  0  0  0  0  0  0
   -1.3329   33.3880    3.5277 O   0  0  0  0  0  0  0  0  0  0  0  0
   -0.1971   33.0244    1.4605 C   0  0  0  0  0  0  0  0  0  0  0  0
    0.3482   34.2433    1.4022 C   0  0  0  0  0  0  0  0  0  0  0  0
    1.2212   34.6624    0.2775 C   0  0  0  0  0  0  0  0  0  0  0  0
    1.6852   35.8600    0.3239 N   0  0  0  0  0  0  0  0  0  0  0  0
    2.5388   36.3964   -0.7188 C   0  0  2  0  0  0  0  0  0  0  0  0
    3.9912   36.0510   -0.4213 C   0  0  0  0  0  0  0  0  0  0  0  0
    2.4443   37.8085   -0.7761 O   0  0  0  0  0  0  0  0  0  0  0  0
    1.4567   33.6349   -0.7729 C   0  0  0  0  0  0  0  0  0  0  0  0
    0.9090   32.4172   -0.7087 C   0  0  0  0  0  0  0  0  0  0  0  0
    0.0355   32.0144    0.4122 C   0  0  0  0  0  0  0  0  0  0  0  0
   -0.4752   30.8224    0.4295 N   0  0  0  0  0  0  0  0  0  0  0  0
  1  2  1  0
  2  3  2  0
  3  4  1  0
  4  5  2  0
  4  6  1  0
  6  7  2  0
  7  8  1  0
  8  9  2  3
  9 10  1  0
 10 11  1  1
 10 12  1  0
  8 13  1  0
 13 14  2  0
 14 15  1  0
 15 16  2  0
 16  2  1  0
 15  6  1  0
M  END
>  <Energy>  (170) 
-35.575934191816685

>  <Energy_Delta>  (170) 
2.2976848594415387

>  <std_smi>  (170) 
CC(=O)Nc1ccc2nc(C)cc(O)c2c1

>  <enum_smi>  (170) 
CC1=CC(=O)C2=CC(=NC(C)O)C=CC2=N1

>  <enum_code>  (170) 
T

>  <parent_uuid>  (170) 
ea1addea-57d6-4931-9057-ca9db5b0445d

>  <o3da_score>  (170) 
80.766759356815683

>  <o3da_score_rel>  (170) 
0.32154420407675521

>  <o3da_align>  (170) 
0.099221556444765144

>  <RMSD>  (170) 
6.8752246063596726e-05

>  <CONVERGED>  (170) 
0

>  <ENERGY>  (170) 
-35.575934191835778

$$$$
89c393c0-5956-4413-83db-04720c40c2b6
     RDKit          3D

 16 17  0  0  0  0  0  0  0  0999 V2000
   -4.6199   25.5875    3.9639 C   0  0  0  0  0  0  0  0  0  0  0  0
   -4.0637   26.9862    3.9694 C   0  0  0  0  0  0  0  0  0  0  0  0
   -4.3399   27.8212    4.9844 C   0  0  0  0  0  0  0  0  0  0  0  0
   -3.7972   29.1915    4.9941 C   0  0  0  0  0  0  0  0  0  0  0  0
   -4.0393   29.9668    5.9096 O   0  0  0  0  0  0  0  0  0  0  0  0
   -2.9594   29.5256    3.8275 C   0  0  0  0  0  0  0  0  0  0  0  0
   -2.4042   30.7364    3.7165 C   0  0  0  0  0  0  0  0  0  0  0  0
   -1.5525   31.1090    2.5596 C   0  0  0  0  0  0  0  0  0  0  0  0
   -1.0668   32.2989    2.5615 N   0  0  0  0  0  0  0  0  0  0  0  0
   -0.2089   32.7825    1.4967 C   0  0  1  0  0  0  0  0  0  0  0  0
   -1.0598   33.3620    0.3754 C   0  0  0  0  0  0  0  0  0  0  0  0
    0.6405   33.8172    1.9594 O   0  0  0  0  0  0  0  0  0  0  0  0
   -1.3667   30.0515    1.5293 C   0  0  0  0  0  0  0  0  0  0  0  0
   -1.9252   28.8426    1.6455 C   0  0  0  0  0  0  0  0  0  0  0  0
   -2.7647   28.4811    2.8058 C   0  0  0  0  0  0  0  0  0  0  0  0
   -3.2834   27.2945    2.8758 N   0  0  0  0  0  0  0  0  0  0  0  0
  1  2  1  0
  2  3  2  0
  3  4  1  0
  4  5  2  0
  4  6  1  0
  6  7  2  0
  7  8  1  0
  8  9  2  3
  9 10  1  0
 10 11  1  6
 10 12  1  0
  8 13  1  0
 13 14  2  0
 14 15  1  0
 15 16  2  0
 16  2  1  0
 15  6  1  0
M  END
>  <Energy>  (171) 
-35.575934191597668

>  <Energy_Delta>  (171) 
2.2976848596605564

>  <std_smi>  (171) 
CC(=O)Nc1ccc2nc(C)cc(O)c2c1

>  <enum_smi>  (171) 
CC1=CC(=O)C2=CC(=NC(C)O)C=CC2=N1

>  <enum_code>  (171) 
T

>  <parent_uuid>  (171) 
ea1addea-57d6-4931-9057-ca9db5b0445d

>  <o3da_score>  (171) 
73.435075735415481

>  <o3da_score_rel>  (171) 
0.29235570631654678

>  <o3da_align>  (171) 
0.42321054748615855

>  <RMSD>  (171) 
7.2378006295934576e-05

>  <CONVERGED>  (171) 
0

>  <ENERGY>  (171) 
-35.575934191820622

$$$$
89c393c0-5956-4413-83db-04720c40c2b6
     RDKit          3D

 16 17  0  0  0  0  0  0  0  0999 V2000
   -3.6214   20.2627    4.3041 C   0  0  0  0  0  0  0  0  0  0  0  0
   -4.1285   21.6796    4.2822 C   0  0  0  0  0  0  0  0  0  0  0  0
   -5.4055   21.9374    3.9558 C   0  0  0  0  0  0  0  0  0  0  0  0
   -5.9064   23.3234    3.9329 C   0  0  0  0  0  0  0  0  0  0  0  0
   -7.0686   23.5749    3.6424 O   0  0  0  0  0  0  0  0  0  0  0  0
   -4.9011   24.3428    4.2856 C   0  0  0  0  0  0  0  0  0  0  0  0
   -5.2268   25.6389    4.3002 C   0  0  0  0  0  0  0  0  0  0  0  0
   -4.2443   26.6967    4.6493 C   0  0  0  0  0  0  0  0  0  0  0  0
   -4.6788   27.9038    4.6320 N   0  0  0  0  0  0  0  0  0  0  0  0
   -3.8539   29.0638    4.9250 C   0  0  1  0  0  0  0  0  0  0  0  0
   -3.7740   29.2798    6.4310 C   0  0  0  0  0  0  0  0  0  0  0  0
   -2.5467   29.0787    4.3700 O   0  0  0  0  0  0  0  0  0  0  0  0
   -2.8792   26.2128    4.9860 C   0  0  0  0  0  0  0  0  0  0  0  0
   -2.5566   24.9159    4.9703 C   0  0  0  0  0  0  0  0  0  0  0  0
   -3.5428   23.8755    4.6176 C   0  0  0  0  0  0  0  0  0  0  0  0
   -3.1861   22.6281    4.6161 N   0  0  0  0  0  0  0  0  0  0  0  0
  1  2  1  0
  2  3  2  0
  3  4  1  0
  4  5  2  0
  4  6  1  0
  6  7  2  0
  7  8  1  0
  8  9  2  3
  9 10  1  0
 10 11  1  1
 10 12  1  0
  8 13  1  0
 13 14  2  0
 14 15  1  0
 15 16  2  0
 16  2  1  0
 15  6  1  0
M  END
>  <Energy>  (172) 
-35.1676214168928

>  <Energy_Delta>  (172) 
2.7059976343654242

>  <std_smi>  (172) 
CC(=O)Nc1ccc2nc(C)cc(O)c2c1

>  <enum_smi>  (172) 
CC1=CC(=O)C2=CC(=NC(C)O)C=CC2=N1

>  <enum_code>  (172) 
T

>  <parent_uuid>  (172) 
ea1addea-57d6-4931-9057-ca9db5b0445d

>  <o3da_score>  (172) 
88.504179929444305

>  <o3da_score_rel>  (172) 
0.35234799959171087

>  <o3da_align>  (172) 
0.40227874428090116

>  <RMSD>  (172) 
0.040358299744250321

>  <CONVERGED>  (172) 
0

>  <ENERGY>  (172) 
-32.825048427571097

$$$$
89c393c0-5956-4413-83db-04720c40c2b6
     RDKit          3D

 16 17  0  0  0  0  0  0  0  0999 V2000
   -1.8261   29.0696    1.4134 C   0  0  0  0  0  0  0  0  0  0  0  0
   -1.2821   30.4713    1.4834 C   0  0  0  0  0  0  0  0  0  0  0  0
   -1.5985   31.2704    2.5150 C   0  0  0  0  0  0  0  0  0  0  0  0
   -1.0677   32.6433    2.5884 C   0  0  0  0  0  0  0  0  0  0  0  0
   -1.3310   33.3752    3.5337 O   0  0  0  0  0  0  0  0  0  0  0  0
   -0.2097   33.0309    1.4519 C   0  0  0  0  0  0  0  0  0  0  0  0
    0.3180   34.2592    1.3943 C   0  0  0  0  0  0  0  0  0  0  0  0
    1.1932   34.6792    0.2705 C   0  0  0  0  0  0  0  0  0  0  0  0
    1.7680   35.8117    0.0840 N   0  0  0  0  0  0  0  0  0  0  0  0
    1.6082   36.9466    0.9791 C   0  0  2  0  0  0  0  0  0  0  0  0
    2.5579   36.8171    2.1639 C   0  0  0  0  0  0  0  0  0  0  0  0
    0.2920   37.2119    1.4384 O   0  0  0  0  0  0  0  0  0  0  0  0
    1.4417   33.6419   -0.7661 C   0  0  0  0  0  0  0  0  0  0  0  0
    0.9107   32.4183   -0.7091 C   0  0  0  0  0  0  0  0  0  0  0  0
    0.0348   32.0166    0.4085 C   0  0  0  0  0  0  0  0  0  0  0  0
   -0.4675   30.8205    0.4285 N   0  0  0  0  0  0  0  0  0  0  0  0
  1  2  1  0
  2  3  2  0
  3  4  1  0
  4  5  2  0
  4  6  1  0
  6  7  2  0
  7  8  1  0
  8  9  2  3
  9 10  1  0
 10 11  1  1
 10 12  1  0
  8 13  1  0
 13 14  2  0
 14 15  1  0
 15 16  2  0
 16  2  1  0
 15  6  1  0
M  END
>  <Energy>  (173) 
-32.874315220742389

>  <Energy_Delta>  (173) 
4.999303830515835

>  <std_smi>  (173) 
CC(=O)Nc1ccc2nc(C)cc(O)c2c1

>  <enum_smi>  (173) 
CC1=CC(=O)C2=CC(=NC(C)O)C=CC2=N1

>  <enum_code>  (173) 
T

>  <parent_uuid>  (173) 
ea1addea-57d6-4931-9057-ca9db5b0445d

>  <o3da_score>  (173) 
80.761543272288492

>  <o3da_score_rel>  (173) 
0.3215234380863769

>  <o3da_align>  (173) 
0.099430893536631801

>  <RMSD>  (173) 
6.4251042414480109e-05

>  <CONVERGED>  (173) 
0

>  <ENERGY>  (173) 
-32.874315220861284

$$$$
fd14a9b4-1f06-44ec-af31-4c7bc62de658
     RDKit          3D

 16 17  0  0  0  0  0  0  0  0999 V2000
   -5.0153   27.8732    6.3219 C   0  0  0  0  0  0  0  0  0  0  0  0
   -4.2489   27.8734    5.0222 C   0  0  0  0  0  0  0  0  0  0  0  0
   -4.1861   26.8580    4.3370 O   0  0  0  0  0  0  0  0  0  0  0  0
   -3.6571   29.0940    4.7717 N   0  0  0  0  0  0  0  0  0  0  0  0
   -2.8654   29.4634    3.6666 C   0  0  0  0  0  0  0  0  0  0  0  0
   -2.5497   28.6231    2.6094 C   0  0  0  0  0  0  0  0  0  0  0  0
   -1.7532   29.0966    1.5590 C   0  0  0  0  0  0  0  0  0  0  0  0
   -1.2563   30.3933    1.5272 C   0  0  0  0  0  0  0  0  0  0  0  0
   -0.5032   30.7468    0.4751 N   0  0  0  0  0  0  0  0  0  0  0  0
   -0.0312   32.0111    0.4648 C   0  0  0  0  0  0  0  0  0  0  0  0
    0.8115   32.4192   -0.7046 C   0  0  0  0  0  0  0  0  0  0  0  0
   -0.2920   32.9333    1.4791 C   0  0  0  0  0  0  0  0  0  0  0  0
   -1.0739   32.6108    2.5990 C   0  0  0  0  0  0  0  0  0  0  0  0
   -1.2979   33.4772    3.5161 O   0  0  0  0  0  1  0  0  0  0  0  0
   -1.5674   31.2705    2.5988 C   0  0  0  0  0  0  0  0  0  0  0  0
   -2.3733   30.7721    3.6499 C   0  0  0  0  0  0  0  0  0  0  0  0
  1  2  1  0
  2  3  2  0
  2  4  1  0
  4  5  1  0
  5  6  2  0
  6  7  1  0
  7  8  2  0
  8  9  1  0
  9 10  2  0
 10 11  1  0
 10 12  1  0
 12 13  2  0
 13 14  1  0
 13 15  1  0
 15 16  2  0
 16  5  1  0
 15  8  1  0
M  CHG  1  14  -1
M  END
>  <Energy>  (174) 
12.240609375691539

>  <Energy_Delta>  (174) 
0

>  <std_smi>  (174) 
CC(=O)Nc1ccc2nc(C)cc(O)c2c1

>  <enum_smi>  (174) 
CC(=O)Nc1ccc2nc(C)cc([O-])c2c1

>  <enum_code>  (174) 
M

>  <parent_uuid>  (174) 
ea1addea-57d6-4931-9057-ca9db5b0445d

>  <o3da_score>  (174) 
111.9442082137701

>  <o3da_score_rel>  (174) 
0.44566615793111863

>  <o3da_align>  (174) 
0.24084206349158738

>  <RMSD>  (174) 
0.012075819262823669

>  <CONVERGED>  (174) 
0

>  <ENERGY>  (174) 
12.240609375701553

$$$$
fd14a9b4-1f06-44ec-af31-4c7bc62de658
     RDKit          3D

 16 17  0  0  0  0  0  0  0  0999 V2000
    2.6600   38.1000    0.3237 C   0  0  0  0  0  0  0  0  0  0  0  0
    1.8141   36.9773    0.8738 C   0  0  0  0  0  0  0  0  0  0  0  0
    1.1708   37.1402    1.9013 O   0  0  0  0  0  0  0  0  0  0  0  0
    1.8731   35.8569    0.0673 N   0  0  0  0  0  0  0  0  0  0  0  0
    1.2304   34.6143    0.2500 C   0  0  0  0  0  0  0  0  0  0  0  0
    1.4470   33.6522   -0.7356 C   0  0  0  0  0  0  0  0  0  0  0  0
    0.8539   32.3922   -0.6366 C   0  0  0  0  0  0  0  0  0  0  0  0
    0.0393   32.0463    0.4277 C   0  0  0  0  0  0  0  0  0  0  0  0
   -0.4721   30.8071    0.4130 N   0  0  0  0  0  0  0  0  0  0  0  0
   -1.2641   30.4685    1.4495 C   0  0  0  0  0  0  0  0  0  0  0  0
   -1.8448   29.0879    1.4501 C   0  0  0  0  0  0  0  0  0  0  0  0
   -1.5557   31.3374    2.4986 C   0  0  0  0  0  0  0  0  0  0  0  0
   -1.0419   32.6438    2.5550 C   0  0  0  0  0  0  0  0  0  0  0  0
   -1.3345   33.4089    3.5383 O   0  0  0  0  0  1  0  0  0  0  0  0
   -0.2020   33.0019    1.4522 C   0  0  0  0  0  0  0  0  0  0  0  0
    0.4119   34.2840    1.3304 C   0  0  0  0  0  0  0  0  0  0  0  0
  1  2  1  0
  2  3  2  0
  2  4  1  0
  4  5  1  0
  5  6  2  0
  6  7  1  0
  7  8  2  0
  8  9  1  0
  9 10  2  0
 10 11  1  0
 10 12  1  0
 12 13  2  0
 13 14  1  0
 13 15  1  0
 15 16  2  0
 16  5  1  0
 15  8  1  0
M  CHG  1  14  -1
M  END
>  <Energy>  (175) 
23.59941331351466

>  <Energy_Delta>  (175) 
11.35880393782312

>  <std_smi>  (175) 
CC(=O)Nc1ccc2nc(C)cc(O)c2c1

>  <enum_smi>  (175) 
CC(=O)Nc1ccc2nc(C)cc([O-])c2c1

>  <enum_code>  (175) 
M

>  <parent_uuid>  (175) 
ea1addea-57d6-4931-9057-ca9db5b0445d

>  <o3da_score>  (175) 
80.347453911143702

>  <o3da_score_rel>  (175) 
0.31987488817418192

>  <o3da_align>  (175) 
0.082913968119328191

>  <RMSD>  (175) 
6.1375073776477252e-05

>  <CONVERGED>  (175) 
0

>  <ENERGY>  (175) 
23.599413313199232

$$$$
f7acf290-1772-402a-84ca-45c49ca2b642
     RDKit          3D

 16 17  0  0  0  0  0  0  0  0999 V2000
   -5.4734   23.5696    4.1272 C   0  0  0  0  0  0  0  0  0  0  0  0
   -4.4539   24.6515    3.8503 C   0  0  0  0  0  0  0  0  0  0  0  0
   -3.4510   24.3905    3.1831 O   0  0  0  0  0  0  0  0  0  0  0  0
   -4.8374   25.7855    4.4503 N   0  0  0  0  0  2  0  0  0  0  0  0
   -4.1896   26.9504    4.2139 C   0  0  0  0  0  0  0  0  0  0  0  0
   -4.2644   27.9566    5.1810 C   0  0  0  0  0  0  0  0  0  0  0  0
   -3.6484   29.2016    4.9993 C   0  0  0  0  0  0  0  0  0  0  0  0
   -2.9282   29.5023    3.8556 C   0  0  0  0  0  0  0  0  0  0  0  0
   -2.3614   30.7246    3.7454 N   0  0  0  0  0  0  0  0  0  0  0  0
   -1.6588   31.0164    2.6272 C   0  0  0  0  0  0  0  0  0  0  0  0
   -1.0482   32.3815    2.5394 C   0  0  0  0  0  0  0  0  0  0  0  0
   -1.4841   30.1108    1.5957 C   0  0  0  0  0  0  0  0  0  0  0  0
   -2.0618   28.8568    1.7236 C   0  0  0  0  0  0  0  0  0  0  0  0
   -1.8176   27.9830    0.6939 O   0  0  0  0  0  0  0  0  0  0  0  0
   -2.8247   28.5171    2.8580 C   0  0  0  0  0  0  0  0  0  0  0  0
   -3.4829   27.2724    3.0454 C   0  0  0  0  0  0  0  0  0  0  0  0
  1  2  1  0
  2  3  2  0
  2  4  1  0
  4  5  1  0
  5  6  2  0
  6  7  1  0
  7  8  2  0
  8  9  1  0
  9 10  2  0
 10 11  1  0
 10 12  1  0
 12 13  2  0
 13 14  1  0
 13 15  1  0
 15 16  2  0
 16  5  1  0
 15  8  1  0
M  CHG  1   4  -1
M  END
>  <Energy>  (176) 
32.936158583860106

>  <Energy_Delta>  (176) 
0

>  <std_smi>  (176) 
CC(=O)Nc1ccc2nc(C)cc(O)c2c1

>  <enum_smi>  (176) 
CC(=O)[N-]c1ccc2nc(C)cc(O)c2c1

>  <enum_code>  (176) 
M

>  <parent_uuid>  (176) 
ea1addea-57d6-4931-9057-ca9db5b0445d

>  <o3da_score>  (176) 
81.719348385654939

>  <o3da_score_rel>  (176) 
0.32533659940782428

>  <o3da_align>  (176) 
0.44581875934399212

>  <RMSD>  (176) 
6.29993745341915e-05

>  <CONVERGED>  (176) 
0

>  <ENERGY>  (176) 
32.93615858339048

$$$$
f7acf290-1772-402a-84ca-45c49ca2b642
     RDKit          3D

 16 17  0  0  0  0  0  0  0  0999 V2000
   -4.3146   17.9278    3.4985 C   0  0  0  0  0  0  0  0  0  0  0  0
   -4.5441   19.3656    3.0917 C   0  0  0  0  0  0  0  0  0  0  0  0
   -5.1085   19.6187    2.0265 O   0  0  0  0  0  0  0  0  0  0  0  0
   -4.0154   20.1788    4.0140 N   0  0  0  0  0  2  0  0  0  0  0  0
   -4.3213   21.4974    4.0207 C   0  0  0  0  0  0  0  0  0  0  0  0
   -5.5208   22.0604    3.5778 C   0  0  0  0  0  0  0  0  0  0  0  0
   -5.7605   23.4379    3.6669 C   0  0  0  0  0  0  0  0  0  0  0  0
   -4.8309   24.3132    4.2023 C   0  0  0  0  0  0  0  0  0  0  0  0
   -5.1375   25.6284    4.2603 N   0  0  0  0  0  0  0  0  0  0  0  0
   -4.2345   26.4861    4.7850 C   0  0  0  0  0  0  0  0  0  0  0  0
   -4.6127   27.9349    4.8309 C   0  0  0  0  0  0  0  0  0  0  0  0
   -3.0043   26.0736    5.2636 C   0  0  0  0  0  0  0  0  0  0  0  0
   -2.6967   24.7226    5.1972 C   0  0  0  0  0  0  0  0  0  0  0  0
   -1.4555   24.3801    5.6719 O   0  0  0  0  0  0  0  0  0  0  0  0
   -3.6110   23.7886    4.6665 C   0  0  0  0  0  0  0  0  0  0  0  0
   -3.3885   22.3869    4.5763 C   0  0  0  0  0  0  0  0  0  0  0  0
  1  2  1  0
  2  3  2  0
  2  4  1  0
  4  5  1  0
  5  6  2  0
  6  7  1  0
  7  8  2  0
  8  9  1  0
  9 10  2  0
 10 11  1  0
 10 12  1  0
 12 13  2  0
 13 14  1  0
 13 15  1  0
 15 16  2  0
 16  5  1  0
 15  8  1  0
M  CHG  1   4  -1
M  END
>  <Energy>  (177) 
35.042966494575097

>  <Energy_Delta>  (177) 
2.1068079107149913

>  <std_smi>  (177) 
CC(=O)Nc1ccc2nc(C)cc(O)c2c1

>  <enum_smi>  (177) 
CC(=O)[N-]c1ccc2nc(C)cc(O)c2c1

>  <enum_code>  (177) 
M

>  <parent_uuid>  (177) 
ea1addea-57d6-4931-9057-ca9db5b0445d

>  <o3da_score>  (177) 
75.693622985948409

>  <o3da_score_rel>  (177) 
0.30134731107852575

>  <o3da_align>  (177) 
0.12721926013539331

>  <RMSD>  (177) 
7.8056509619727223e-05

>  <CONVERGED>  (177) 
0

>  <ENERGY>  (177) 
35.042966504384182

$$$$
f7acf290-1772-402a-84ca-45c49ca2b642
     RDKit          3D

 16 17  0  0  0  0  0  0  0  0999 V2000
   -7.4755   22.6549    2.0764 C   0  0  0  0  0  0  0  0  0  0  0  0
   -6.9036   23.6999    3.0077 C   0  0  0  0  0  0  0  0  0  0  0  0
   -7.6517   24.5281    3.5307 O   0  0  0  0  0  0  0  0  0  0  0  0
   -5.5842   23.5082    3.1316 N   0  0  0  0  0  2  0  0  0  0  0  0
   -4.8073   24.4138    3.7711 C   0  0  0  0  0  0  0  0  0  0  0  0
   -3.5952   23.9789    4.3141 C   0  0  0  0  0  0  0  0  0  0  0  0
   -2.7200   24.8590    4.9639 C   0  0  0  0  0  0  0  0  0  0  0  0
   -3.0090   26.2053    5.1083 C   0  0  0  0  0  0  0  0  0  0  0  0
   -2.1179   26.9980    5.7448 N   0  0  0  0  0  0  0  0  0  0  0  0
   -2.4020   28.3129    5.8843 C   0  0  0  0  0  0  0  0  0  0  0  0
   -1.3894   29.1604    6.5920 C   0  0  0  0  0  0  0  0  0  0  0  0
   -3.5736   28.8792    5.4143 C   0  0  0  0  0  0  0  0  0  0  0  0
   -4.4847   28.0550    4.7716 C   0  0  0  0  0  0  0  0  0  0  0  0
   -5.6493   28.6585    4.3681 O   0  0  0  0  0  0  0  0  0  0  0  0
   -4.2201   26.6849    4.5794 C   0  0  0  0  0  0  0  0  0  0  0  0
   -5.0798   25.7844    3.8956 C   0  0  0  0  0  0  0  0  0  0  0  0
  1  2  1  0
  2  3  2  0
  2  4  1  0
  4  5  1  0
  5  6  2  0
  6  7  1  0
  7  8  2  0
  8  9  1  0
  9 10  2  0
 10 11  1  0
 10 12  1  0
 12 13  2  0
 13 14  1  0
 13 15  1  0
 15 16  2  0
 16  5  1  0
 15  8  1  0
M  CHG  1   4  -1
M  END
>  <Energy>  (178) 
44.665683354621635

>  <Energy_Delta>  (178) 
11.729524770761529

>  <std_smi>  (178) 
CC(=O)Nc1ccc2nc(C)cc(O)c2c1

>  <enum_smi>  (178) 
CC(=O)[N-]c1ccc2nc(C)cc(O)c2c1

>  <enum_code>  (178) 
M

>  <parent_uuid>  (178) 
ea1addea-57d6-4931-9057-ca9db5b0445d

>  <o3da_score>  (178) 
75.218273689887155

>  <o3da_score_rel>  (178) 
0.29945487646461222

>  <o3da_align>  (178) 
0.22052488633252645

>  <RMSD>  (178) 
0.60973671937256446

>  <CONVERGED>  (178) 
0

>  <ENERGY>  (178) 
32.936158583632732

$$$$
0e6d605d-eec1-46d6-ac46-bd659c05c4a9
     RDKit          3D

 16 17  0  0  0  0  0  0  0  0999 V2000
    2.3686   32.4240   -2.3179 C   0  0  0  0  0  0  0  0  0  0  0  0
    1.7095   31.7071   -1.1622 C   0  0  0  0  0  0  0  0  0  0  0  0
    2.0225   30.5461   -0.8922 O   0  0  0  0  0  0  0  0  0  0  0  0
    0.8358   32.5269   -0.5600 N   0  0  0  0  0  2  0  0  0  0  0  0
    0.0556   32.0391    0.4288 C   0  0  0  0  0  0  0  0  0  0  0  0
   -0.2533   32.8836    1.4999 C   0  0  0  0  0  0  0  0  0  0  0  0
   -1.0482   32.4489    2.5541 C   0  0  0  0  0  0  0  0  0  0  0  0
   -1.5500   31.1447    2.5488 C   0  0  0  0  0  0  0  0  0  0  0  0
   -2.3092   30.7250    3.5780 N   0  0  0  0  0  4  0  0  0  0  0  0
   -2.8390   29.4933    3.6627 C   0  0  0  0  0  0  0  0  0  0  0  0
   -3.6668   29.1420    4.8553 C   0  0  0  0  0  0  0  0  0  0  0  0
   -2.5953   28.5771    2.6478 C   0  0  0  0  0  0  0  0  0  0  0  0
   -1.8098   28.9607    1.5707 C   0  0  0  0  0  0  0  0  0  0  0  0
   -1.5836   27.9924    0.6340 O   0  0  0  0  0  0  0  0  0  0  0  0
   -1.2811   30.2608    1.4877 C   0  0  0  0  0  0  0  0  0  0  0  0
   -0.5016   30.7475    0.4244 C   0  0  0  0  0  0  0  0  0  0  0  0
  1  2  1  0
  2  3  2  0
  2  4  1  0
  4  5  1  0
  5  6  2  0
  6  7  1  0
  7  8  2  0
  8  9  1  0
  9 10  2  0
 10 11  1  0
 10 12  1  0
 12 13  2  0
 13 14  1  0
 13 15  1  0
 15 16  2  0
 16  5  1  0
 15  8  1  0
M  CHG  2   4  -1   9   1
M  END
>  <Energy>  (179) 
-9.8079355619433883

>  <Energy_Delta>  (179) 
0

>  <std_smi>  (179) 
CC(=O)Nc1ccc2nc(C)cc(O)c2c1

>  <enum_smi>  (179) 
CC(=O)[N-]c1ccc2[nH+]c(C)cc(O)c2c1

>  <enum_code>  (179) 
M

>  <parent_uuid>  (179) 
ea1addea-57d6-4931-9057-ca9db5b0445d

>  <o3da_score>  (179) 
86.20104464522224

>  <o3da_score_rel>  (179) 
0.34317888338915792

>  <o3da_align>  (179) 
0.19105399144866617

>  <RMSD>  (179) 
6.9268701345129923e-05

>  <CONVERGED>  (179) 
0

>  <ENERGY>  (179) 
-9.8079355620323714

$$$$
0e6d605d-eec1-46d6-ac46-bd659c05c4a9
     RDKit          3D

 16 17  0  0  0  0  0  0  0  0999 V2000
    3.5156   37.3714   -0.2200 C   0  0  0  0  0  0  0  0  0  0  0  0
    3.1273   35.9175   -0.0844 C   0  0  0  0  0  0  0  0  0  0  0  0
    3.9647   35.0306   -0.2573 O   0  0  0  0  0  0  0  0  0  0  0  0
    1.8335   35.8218    0.2552 N   0  0  0  0  0  2  0  0  0  0  0  0
    1.2725   34.5938    0.2693 C   0  0  0  0  0  0  0  0  0  0  0  0
    1.4613   33.6464   -0.7452 C   0  0  0  0  0  0  0  0  0  0  0  0
    0.8715   32.3925   -0.6764 C   0  0  0  0  0  0  0  0  0  0  0  0
    0.0608   32.0729    0.4140 C   0  0  0  0  0  0  0  0  0  0  0  0
   -0.4930   30.8480    0.4788 N   0  0  0  0  0  4  0  0  0  0  0  0
   -1.2939   30.4410    1.4764 C   0  0  0  0  0  0  0  0  0  0  0  0
   -1.8487   29.0548    1.4395 C   0  0  0  0  0  0  0  0  0  0  0  0
   -1.5828   31.3168    2.5146 C   0  0  0  0  0  0  0  0  0  0  0  0
   -1.0298   32.5900    2.4963 C   0  0  0  0  0  0  0  0  0  0  0  0
   -1.3579   33.3808    3.5608 O   0  0  0  0  0  0  0  0  0  0  0  0
   -0.1915   33.0022    1.4434 C   0  0  0  0  0  0  0  0  0  0  0  0
    0.4218   34.2657    1.3368 C   0  0  0  0  0  0  0  0  0  0  0  0
  1  2  1  0
  2  3  2  0
  2  4  1  0
  4  5  1  0
  5  6  2  0
  6  7  1  0
  7  8  2  0
  8  9  1  0
  9 10  2  0
 10 11  1  0
 10 12  1  0
 12 13  2  0
 13 14  1  0
 13 15  1  0
 15 16  2  0
 16  5  1  0
 15  8  1  0
M  CHG  2   4  -1   9   1
M  END
>  <Energy>  (180) 
-8.5094598556008201

>  <Energy_Delta>  (180) 
1.2984757063425683

>  <std_smi>  (180) 
CC(=O)Nc1ccc2nc(C)cc(O)c2c1

>  <enum_smi>  (180) 
CC(=O)[N-]c1ccc2[nH+]c(C)cc(O)c2c1

>  <enum_code>  (180) 
M

>  <parent_uuid>  (180) 
ea1addea-57d6-4931-9057-ca9db5b0445d

>  <o3da_score>  (180) 
75.202043826737864

>  <o3da_score_rel>  (180) 
0.29939026302128269

>  <o3da_align>  (180) 
0.089650734606212534

>  <RMSD>  (180) 
8.8479958291049857e-05

>  <CONVERGED>  (180) 
0

>  <ENERGY>  (180) 
-8.5094598556656766

$$$$
27f838f6-a19b-4a30-be75-1d9aeda2521c
     RDKit          3D

 16 17  0  0  0  0  0  0  0  0999 V2000
    0.9347   32.8935   -0.6217 C   0  0  0  0  0  0  0  0  0  0  0  0
    0.0806   32.1131    0.3458 C   0  0  0  0  0  0  0  0  0  0  0  0
   -0.2522   30.9571    0.1087 O   0  0  0  0  0  0  0  0  0  0  0  0
   -0.2803   32.8549    1.4597 N   0  0  0  0  0  0  0  0  0  0  0  0
   -1.0722   32.4306    2.5466 C   0  0  0  0  0  0  0  0  0  0  0  0
   -1.3296   33.3608    3.5567 C   0  0  0  0  0  0  0  0  0  0  0  0
   -2.1073   33.0117    4.6650 C   0  0  0  0  0  0  0  0  0  0  0  0
   -2.6405   31.7206    4.7776 C   0  0  0  0  0  0  0  0  0  0  0  0
   -3.3888   31.3936    5.8503 N   0  0  0  0  0  4  0  0  0  0  0  0
   -3.9356   30.1793    6.0359 C   0  0  0  0  0  0  0  0  0  0  0  0
   -4.7483   29.9266    7.2647 C   0  0  0  0  0  0  0  0  0  0  0  0
   -3.7307   29.1931    5.0802 C   0  0  0  0  0  0  0  0  0  0  0  0
   -2.9669   29.4836    3.9566 C   0  0  0  0  0  0  0  0  0  0  0  0
   -2.8285   28.4476    3.0793 O   0  0  0  0  0  0  0  0  0  0  0  0
   -2.3984   30.7577    3.7743 C   0  0  0  0  0  0  0  0  0  0  0  0
   -1.6054   31.1413    2.6656 C   0  0  0  0  0  0  0  0  0  0  0  0
  1  2  1  0
  2  3  2  0
  2  4  1  0
  4  5  1  0
  5  6  2  0
  6  7  1  0
  7  8  2  0
  8  9  1  0
  9 10  2  0
 10 11  1  0
 10 12  1  0
 12 13  2  0
 13 14  1  0
 13 15  1  0
 15 16  2  0
 16  5  1  0
 15  8  1  0
M  CHG  1   9   1
M  END
>  <Energy>  (181) 
23.4517723196331

>  <Energy_Delta>  (181) 
0

>  <std_smi>  (181) 
CC(=O)Nc1ccc2nc(C)cc(O)c2c1

>  <enum_smi>  (181) 
CC(=O)Nc1ccc2[nH+]c(C)cc(O)c2c1

>  <enum_code>  (181) 
M

>  <parent_uuid>  (181) 
ea1addea-57d6-4931-9057-ca9db5b0445d

>  <o3da_score>  (181) 
88.027147022637863

>  <o3da_score_rel>  (181) 
0.35044886227879907

>  <o3da_align>  (181) 
0.32888285476624263

>  <RMSD>  (181) 
0.025273793160171146

>  <CONVERGED>  (181) 
0

>  <ENERGY>  (181) 
23.451772319366583

$$$$
27f838f6-a19b-4a30-be75-1d9aeda2521c
     RDKit          3D

 16 17  0  0  0  0  0  0  0  0999 V2000
   -5.0615   27.8091    6.3237 C   0  0  0  0  0  0  0  0  0  0  0  0
   -4.2662   27.8546    5.0429 C   0  0  0  0  0  0  0  0  0  0  0  0
   -4.1476   26.8613    4.3351 O   0  0  0  0  0  0  0  0  0  0  0  0
   -3.6968   29.0975    4.8125 N   0  0  0  0  0  0  0  0  0  0  0  0
   -2.8958   29.4761    3.7150 C   0  0  0  0  0  0  0  0  0  0  0  0
   -2.5740   28.6221    2.6607 C   0  0  0  0  0  0  0  0  0  0  0  0
   -1.7762   29.0626    1.6020 C   0  0  0  0  0  0  0  0  0  0  0  0
   -1.2855   30.3719    1.5830 C   0  0  0  0  0  0  0  0  0  0  0  0
   -0.5191   30.7804    0.5525 N   0  0  0  0  0  4  0  0  0  0  0  0
   -0.0068   32.0184    0.4492 C   0  0  0  0  0  0  0  0  0  0  0  0
    0.8300   32.3634   -0.7402 C   0  0  0  0  0  0  0  0  0  0  0  0
   -0.2697   32.9420    1.4524 C   0  0  0  0  0  0  0  0  0  0  0  0
   -1.0539   32.5655    2.5368 C   0  0  0  0  0  0  0  0  0  0  0  0
   -1.2467   33.5477    3.4640 O   0  0  0  0  0  0  0  0  0  0  0  0
   -1.5888   31.2667    2.6340 C   0  0  0  0  0  0  0  0  0  0  0  0
   -2.4034   30.7910    3.6943 C   0  0  0  0  0  0  0  0  0  0  0  0
  1  2  1  0
  2  3  2  0
  2  4  1  0
  4  5  1  0
  5  6  2  0
  6  7  1  0
  7  8  2  0
  8  9  1  0
  9 10  2  0
 10 11  1  0
 10 12  1  0
 12 13  2  0
 13 14  1  0
 13 15  1  0
 15 16  2  0
 16  5  1  0
 15  8  1  0
M  CHG  1   9   1
M  END
>  <Energy>  (182) 
23.658286911622849

>  <Energy_Delta>  (182) 
0.2065145919897482

>  <std_smi>  (182) 
CC(=O)Nc1ccc2nc(C)cc(O)c2c1

>  <enum_smi>  (182) 
CC(=O)Nc1ccc2[nH+]c(C)cc(O)c2c1

>  <enum_code>  (182) 
M

>  <parent_uuid>  (182) 
ea1addea-57d6-4931-9057-ca9db5b0445d

>  <o3da_score>  (182) 
106.76868669312914

>  <o3da_score_rel>  (182) 
0.42506165477549979

>  <o3da_align>  (182) 
0.2404785773760468

>  <RMSD>  (182) 
0.04687142373162187

>  <CONVERGED>  (182) 
0

>  <ENERGY>  (182) 
25.472507959119106

$$$$
dc18cca1-799f-4d14-bf7f-dafab140f841
     RDKit          3D

 16 17  0  0  0  0  0  0  0  0999 V2000
   -4.2975   30.2950    4.8299 C   0  0  0  0  0  0  0  0  0  0  0  0
   -3.8077   28.9401    5.2921 C   0  0  0  0  0  0  0  0  0  0  0  0
   -2.9328   28.8795    6.1589 O   0  0  0  0  0  0  0  0  0  0  0  0
   -4.4908   27.9906    4.6446 N   0  0  0  0  0  2  0  0  0  0  0  0
   -4.1562   26.6766    4.6974 C   0  0  0  0  0  0  0  0  0  0  0  0
   -2.9471   26.1474    5.1445 C   0  0  0  0  0  0  0  0  0  0  0  0
   -2.7007   24.7673    5.1273 C   0  0  0  0  0  0  0  0  0  0  0  0
   -3.6245   23.8460    4.6590 C   0  0  0  0  0  0  0  0  0  0  0  0
   -3.2614   22.5484    4.6936 N   0  0  0  0  0  0  0  0  0  0  0  0
   -4.1582   21.6561    4.2331 C   0  0  0  0  0  0  0  0  0  0  0  0
   -3.7661   20.2118    4.2689 C   0  0  0  0  0  0  0  0  0  0  0  0
   -5.4081   22.0158    3.7345 C   0  0  0  0  0  0  0  0  0  0  0  0
   -5.8359   23.3523    3.6742 C   0  0  0  0  0  0  0  0  0  0  0  0
   -6.9974   23.6270    3.2022 O   0  0  0  0  0  1  0  0  0  0  0  0
   -4.8740   24.3093    4.1731 C   0  0  0  0  0  0  0  0  0  0  0  0
   -5.0906   25.7247    4.2123 C   0  0  0  0  0  0  0  0  0  0  0  0
  1  2  1  0
  2  3  2  0
  2  4  1  0
  4  5  1  0
  5  6  2  0
  6  7  1  0
  7  8  2  0
  8  9  1  0
  9 10  2  0
 10 11  1  0
 10 12  1  0
 12 13  2  0
 13 14  1  0
 13 15  1  0
 15 16  2  0
 16  5  1  0
 15  8  1  0
M  CHG  2   4  -1  14  -1
M  END
>  <Energy>  (183) 
108.02582081956885

>  <Energy_Delta>  (183) 
0

>  <std_smi>  (183) 
CC(=O)Nc1ccc2nc(C)cc(O)c2c1

>  <enum_smi>  (183) 
CC(=O)[N-]c1ccc2nc(C)cc([O-])c2c1

>  <enum_code>  (183) 
M

>  <parent_uuid>  (183) 
ea1addea-57d6-4931-9057-ca9db5b0445d

>  <o3da_score>  (183) 
84.032789133275898

>  <o3da_score_rel>  (183) 
0.33454674315750965

>  <o3da_align>  (183) 
0.18705960030631305

>  <RMSD>  (183) 
7.1915517252062896e-05

>  <CONVERGED>  (183) 
0

>  <ENERGY>  (183) 
108.02582080032045

$$$$
dc18cca1-799f-4d14-bf7f-dafab140f841
     RDKit          3D

 16 17  0  0  0  0  0  0  0  0999 V2000
   -3.1278   24.7384    5.6717 C   0  0  0  0  0  0  0  0  0  0  0  0
   -4.5672   25.0611    5.3170 C   0  0  0  0  0  0  0  0  0  0  0  0
   -5.4840   24.6891    6.0532 O   0  0  0  0  0  0  0  0  0  0  0  0
   -4.6988   25.6964    4.1453 N   0  0  0  0  0  2  0  0  0  0  0  0
   -4.1181   26.9232    4.0512 C   0  0  0  0  0  0  0  0  0  0  0  0
   -4.2164   27.8962    5.0473 C   0  0  0  0  0  0  0  0  0  0  0  0
   -3.6172   29.1509    4.8946 C   0  0  0  0  0  0  0  0  0  0  0  0
   -2.9076   29.5048    3.7569 C   0  0  0  0  0  0  0  0  0  0  0  0
   -2.3757   30.7423    3.7377 N   0  0  0  0  0  0  0  0  0  0  0  0
   -1.6892   31.0893    2.6327 C   0  0  0  0  0  0  0  0  0  0  0  0
   -1.0941   32.4625    2.6001 C   0  0  0  0  0  0  0  0  0  0  0  0
   -1.5143   30.2396    1.5429 C   0  0  0  0  0  0  0  0  0  0  0  0
   -2.0466   28.9401    1.5106 C   0  0  0  0  0  0  0  0  0  0  0  0
   -1.8521   28.1993    0.4811 O   0  0  0  0  0  1  0  0  0  0  0  0
   -2.7846   28.5683    2.6955 C   0  0  0  0  0  0  0  0  0  0  0  0
   -3.4143   27.2967    2.8828 C   0  0  0  0  0  0  0  0  0  0  0  0
  1  2  1  0
  2  3  2  0
  2  4  1  0
  4  5  1  0
  5  6  2  0
  6  7  1  0
  7  8  2  0
  8  9  1  0
  9 10  2  0
 10 11  1  0
 10 12  1  0
 12 13  2  0
 13 14  1  0
 13 15  1  0
 15 16  2  0
 16  5  1  0
 15  8  1  0
M  CHG  2   4  -1  14  -1
M  END
>  <Energy>  (184) 
108.12382598909734

>  <Energy_Delta>  (184) 
0.098005169528491365

>  <std_smi>  (184) 
CC(=O)Nc1ccc2nc(C)cc(O)c2c1

>  <enum_smi>  (184) 
CC(=O)[N-]c1ccc2nc(C)cc([O-])c2c1

>  <enum_code>  (184) 
M

>  <parent_uuid>  (184) 
ea1addea-57d6-4931-9057-ca9db5b0445d

>  <o3da_score>  (184) 
74.921286977814475

>  <o3da_score_rel>  (184) 
0.29827252921290559

>  <o3da_align>  (184) 
0.41858293205300273

>  <RMSD>  (184) 
6.8736535327819956e-05

>  <CONVERGED>  (184) 
0

>  <ENERGY>  (184) 
108.12382598625929

$$$$
dc18cca1-799f-4d14-bf7f-dafab140f841
     RDKit          3D

 16 17  0  0  0  0  0  0  0  0999 V2000
   -2.6651   29.9029    8.2710 C   0  0  0  0  0  0  0  0  0  0  0  0
   -2.0792   30.4270    6.9733 C   0  0  0  0  0  0  0  0  0  0  0  0
   -2.0426   31.6405    6.7568 O   0  0  0  0  0  0  0  0  0  0  0  0
   -1.5803   29.4653    6.1859 N   0  0  0  0  0  2  0  0  0  0  0  0
   -2.4634   28.5381    5.7260 C   0  0  0  0  0  0  0  0  0  0  0  0
   -3.7196   28.8646    5.2121 C   0  0  0  0  0  0  0  0  0  0  0  0
   -4.5846   27.8753    4.7328 C   0  0  0  0  0  0  0  0  0  0  0  0
   -4.2491   26.5297    4.7289 C   0  0  0  0  0  0  0  0  0  0  0  0
   -5.1739   25.6784    4.2445 N   0  0  0  0  0  0  0  0  0  0  0  0
   -4.8491   24.3718    4.2366 C   0  0  0  0  0  0  0  0  0  0  0  0
   -5.8692   23.4165    3.6998 C   0  0  0  0  0  0  0  0  0  0  0  0
   -3.6286   23.8844    4.6981 C   0  0  0  0  0  0  0  0  0  0  0  0
   -2.6298   24.7272    5.2132 C   0  0  0  0  0  0  0  0  0  0  0  0
   -1.5247   24.2233    5.6272 O   0  0  0  0  0  1  0  0  0  0  0  0
   -2.9776   26.1292    5.2203 C   0  0  0  0  0  0  0  0  0  0  0  0
   -2.1158   27.1675    5.6978 C   0  0  0  0  0  0  0  0  0  0  0  0
  1  2  1  0
  2  3  2  0
  2  4  1  0
  4  5  1  0
  5  6  2  0
  6  7  1  0
  7  8  2  0
  8  9  1  0
  9 10  2  0
 10 11  1  0
 10 12  1  0
 12 13  2  0
 13 14  1  0
 13 15  1  0
 15 16  2  0
 16  5  1  0
 15  8  1  0
M  CHG  2   4  -1  14  -1
M  END
>  <Energy>  (185) 
108.12382599801185

>  <Energy_Delta>  (185) 
0.09800517844300316

>  <std_smi>  (185) 
CC(=O)Nc1ccc2nc(C)cc(O)c2c1

>  <enum_smi>  (185) 
CC(=O)[N-]c1ccc2nc(C)cc([O-])c2c1

>  <enum_code>  (185) 
M

>  <parent_uuid>  (185) 
ea1addea-57d6-4931-9057-ca9db5b0445d

>  <o3da_score>  (185) 
72.227719580276258

>  <o3da_score_rel>  (185) 
0.287549046039064

>  <o3da_align>  (185) 
0.11738071321599175

>  <RMSD>  (185) 
6.8805140043484651e-05

>  <CONVERGED>  (185) 
0

>  <ENERGY>  (185) 
108.12382598556624

$$$$
79988329-dc9f-4308-8bd7-147270c385e9
     RDKit          3D

 16 17  0  0  0  0  0  0  0  0999 V2000
   -5.0309   27.8466    6.3442 C   0  0  0  0  0  0  0  0  0  0  0  0
   -4.2576   27.8624    5.0492 C   0  0  0  0  0  0  0  0  0  0  0  0
   -4.1756   26.8556    4.3531 O   0  0  0  0  0  0  0  0  0  0  0  0
   -3.6715   29.0883    4.8002 N   0  0  0  0  0  0  0  0  0  0  0  0
   -2.8786   29.4542    3.6953 C   0  0  0  0  0  0  0  0  0  0  0  0
   -2.5639   28.6005    2.6415 C   0  0  0  0  0  0  0  0  0  0  0  0
   -1.7684   29.0513    1.5845 C   0  0  0  0  0  0  0  0  0  0  0  0
   -1.2790   30.3659    1.5717 C   0  0  0  0  0  0  0  0  0  0  0  0
   -0.5161   30.7832    0.5492 N   0  0  0  0  0  4  0  0  0  0  0  0
   -0.0130   32.0210    0.4657 C   0  0  0  0  0  0  0  0  0  0  0  0
    0.8255   32.3922   -0.7116 C   0  0  0  0  0  0  0  0  0  0  0  0
   -0.2865   32.9284    1.4806 C   0  0  0  0  0  0  0  0  0  0  0  0
   -1.0729   32.5914    2.5918 C   0  0  0  0  0  0  0  0  0  0  0  0
   -1.2962   33.4575    3.4971 O   0  0  0  0  0  1  0  0  0  0  0  0
   -1.5774   31.2587    2.6200 C   0  0  0  0  0  0  0  0  0  0  0  0
   -2.3853   30.7653    3.6722 C   0  0  0  0  0  0  0  0  0  0  0  0
  1  2  1  0
  2  3  2  0
  2  4  1  0
  4  5  1  0
  5  6  2  0
  6  7  1  0
  7  8  2  0
  8  9  1  0
  9 10  2  0
 10 11  1  0
 10 12  1  0
 12 13  2  0
 13 14  1  0
 13 15  1  0
 15 16  2  0
 16  5  1  0
 15  8  1  0
M  CHG  2   9   1  14  -1
M  END
>  <Energy>  (186) 
-41.3958405511477

>  <Energy_Delta>  (186) 
0

>  <std_smi>  (186) 
CC(=O)Nc1ccc2nc(C)cc(O)c2c1

>  <enum_smi>  (186) 
CC(=O)Nc1ccc2[nH+]c(C)cc([O-])c2c1

>  <enum_code>  (186) 
M

>  <parent_uuid>  (186) 
ea1addea-57d6-4931-9057-ca9db5b0445d

>  <o3da_score>  (186) 
108.58630821062366

>  <o3da_score_rel>  (186) 
0.432297870129561

>  <o3da_align>  (186) 
0.24088635435571534

>  <RMSD>  (186) 
0.015195753016865668

>  <CONVERGED>  (186) 
0

>  <ENERGY>  (186) 
-41.395840551169968

$$$$
79988329-dc9f-4308-8bd7-147270c385e9
     RDKit          3D

 16 17  0  0  0  0  0  0  0  0999 V2000
   -4.9408   28.5482    6.6797 C   0  0  0  0  0  0  0  0  0  0  0  0
   -4.1311   29.4927    5.8255 C   0  0  0  0  0  0  0  0  0  0  0  0
   -3.9768   30.6578    6.1637 O   0  0  0  0  0  0  0  0  0  0  0  0
   -3.6627   28.8789    4.6768 N   0  0  0  0  0  0  0  0  0  0  0  0
   -2.8665   29.4426    3.6579 C   0  0  0  0  0  0  0  0  0  0  0  0
   -2.5614   28.6155    2.5738 C   0  0  0  0  0  0  0  0  0  0  0  0
   -1.7780   29.0871    1.5198 C   0  0  0  0  0  0  0  0  0  0  0  0
   -1.2816   30.3995    1.5363 C   0  0  0  0  0  0  0  0  0  0  0  0
   -0.5291   30.8302    0.5105 N   0  0  0  0  0  4  0  0  0  0  0  0
   -0.0119   32.0618    0.4420 C   0  0  0  0  0  0  0  0  0  0  0  0
    0.8123   32.4465   -0.7409 C   0  0  0  0  0  0  0  0  0  0  0  0
   -0.2566   32.9485    1.4775 C   0  0  0  0  0  0  0  0  0  0  0  0
   -1.0300   32.5954    2.5931 C   0  0  0  0  0  0  0  0  0  0  0  0
   -1.2177   33.4524    3.5132 O   0  0  0  0  0  1  0  0  0  0  0  0
   -1.5595   31.2671    2.6105 C   0  0  0  0  0  0  0  0  0  0  0  0
   -2.3660   30.7498    3.6655 C   0  0  0  0  0  0  0  0  0  0  0  0
  1  2  1  0
  2  3  2  0
  2  4  1  0
  4  5  1  0
  5  6  2  0
  6  7  1  0
  7  8  2  0
  8  9  1  0
  9 10  2  0
 10 11  1  0
 10 12  1  0
 12 13  2  0
 13 14  1  0
 13 15  1  0
 15 16  2  0
 16  5  1  0
 15  8  1  0
M  CHG  2   9   1  14  -1
M  END
>  <Energy>  (187) 
-29.164534343941252

>  <Energy_Delta>  (187) 
12.231306207206448

>  <std_smi>  (187) 
CC(=O)Nc1ccc2nc(C)cc(O)c2c1

>  <enum_smi>  (187) 
CC(=O)Nc1ccc2[nH+]c(C)cc([O-])c2c1

>  <enum_code>  (187) 
M

>  <parent_uuid>  (187) 
ea1addea-57d6-4931-9057-ca9db5b0445d

>  <o3da_score>  (187) 
97.041737756247201

>  <o3da_score_rel>  (187) 
0.38633725777217975

>  <o3da_align>  (187) 
0.17898113563328755

>  <RMSD>  (187) 
0.053193784132582966

>  <CONVERGED>  (187) 
0

>  <ENERGY>  (187) 
-29.164534343987242

$$$$
38ce1dff-635b-49bf-aa41-0dda23e4ce8b
     RDKit          3D

 16 17  0  0  0  0  0  0  0  0999 V2000
    0.6821   32.4489   -0.5644 C   0  0  0  0  0  0  0  0  0  0  0  0
   -0.1305   32.0646    0.6481 C   0  0  0  0  0  0  0  0  0  0  0  0
   -0.3460   32.8871    1.5312 O   0  0  0  0  0  0  0  0  0  0  0  0
   -0.5708   30.7639    0.5880 N   0  0  0  0  0  0  0  0  0  0  0  0
   -1.3382   30.1035    1.5117 C   0  0  0  0  0  0  0  0  0  0  0  0
   -1.6749   28.8525    1.3239 N   0  0  0  0  0  0  0  0  0  0  0  0
   -2.4508   28.4070    2.3891 C   0  0  0  0  0  0  0  0  0  0  0  0
   -2.9305   26.9981    2.3474 C   0  0  0  0  0  0  0  0  0  0  0  0
   -2.6826   29.3482    3.3894 C   0  0  0  0  0  0  0  0  0  0  0  0
   -3.4531   29.2410    4.6367 C   0  0  0  0  0  0  0  0  0  0  0  0
   -3.2609   30.0721    5.7392 C   0  0  0  0  0  0  0  0  0  0  0  0
   -4.0479   29.8854    6.8749 C   0  0  0  0  0  0  0  0  0  0  0  0
   -5.0024   28.8780    6.8845 C   0  0  0  0  0  0  0  0  0  0  0  0
   -5.1288   28.0927    5.7533 C   0  0  0  0  0  0  0  0  0  0  0  0
   -4.3785   28.2494    4.6403 N   0  0  0  0  0  0  0  0  0  0  0  0
   -1.9059   30.8193    2.9377 S   0  0  0  0  0  0  0  0  0  0  0  0
  1  2  1  0
  2  3  2  0
  2  4  1  0
  4  5  1  0
  5  6  2  0
  6  7  1  0
  7  8  1  0
  7  9  2  0
  9 10  1  0
 10 11  2  0
 11 12  1  0
 12 13  2  0
 13 14  1  0
 14 15  2  0
  9 16  1  0
 16  5  1  0
 15 10  1  0
M  END
>  <Energy>  (188) 
-14.847750948884293

>  <Energy_Delta>  (188) 
0

>  <std_smi>  (188) 
CC(=O)Nc1nc(C)c(-c2ccccn2)s1

>  <enum_smi>  (188) 
CC(=O)Nc1nc(C)c(-c2ccccn2)s1

>  <enum_code>  (188) 
B

>  <o3da_score>  (188) 
91.210678149293585

>  <o3da_score_rel>  (188) 
0.36312296224796797

>  <o3da_align>  (188) 
0.37839611988766936

>  <RMSD>  (188) 
0.015719941023398777

>  <CONVERGED>  (188) 
0

>  <ENERGY>  (188) 
-14.832354999031644

$$$$
38ce1dff-635b-49bf-aa41-0dda23e4ce8b
     RDKit          3D

 16 17  0  0  0  0  0  0  0  0999 V2000
    0.8513   32.4090   -0.6670 C   0  0  0  0  0  0  0  0  0  0  0  0
   -0.0116   32.1256    0.5382 C   0  0  0  0  0  0  0  0  0  0  0  0
   -0.1715   32.9852    1.3968 O   0  0  0  0  0  0  0  0  0  0  0  0
   -0.5161   30.8457    0.5279 N   0  0  0  0  0  0  0  0  0  0  0  0
   -1.3325   30.3674    1.5141 C   0  0  0  0  0  0  0  0  0  0  0  0
   -1.7895   30.9635    2.5789 N   0  0  0  0  0  0  0  0  0  0  0  0
   -2.5999   30.0916    3.2946 C   0  0  0  0  0  0  0  0  0  0  0  0
   -3.2269   30.6033    4.5436 C   0  0  0  0  0  0  0  0  0  0  0  0
   -2.7222   28.8152    2.7518 C   0  0  0  0  0  0  0  0  0  0  0  0
   -3.4894   27.6574    3.2230 C   0  0  0  0  0  0  0  0  0  0  0  0
   -3.0937   26.3379    3.0141 C   0  0  0  0  0  0  0  0  0  0  0  0
   -3.8940   25.3076    3.5049 C   0  0  0  0  0  0  0  0  0  0  0  0
   -5.0613   25.6185    4.1896 C   0  0  0  0  0  0  0  0  0  0  0  0
   -5.3801   26.9538    4.3593 C   0  0  0  0  0  0  0  0  0  0  0  0
   -4.6226   27.9723    3.8964 N   0  0  0  0  0  0  0  0  0  0  0  0
   -1.8082   28.7490    1.2894 S   0  0  0  0  0  0  0  0  0  0  0  0
  1  2  1  0
  2  3  2  0
  2  4  1  0
  4  5  1  0
  5  6  2  0
  6  7  1  0
  7  8  1  0
  7  9  2  0
  9 10  1  0
 10 11  2  0
 11 12  1  0
 12 13  2  0
 13 14  1  0
 14 15  2  0
  9 16  1  0
 16  5  1  0
 15 10  1  0
M  END
>  <Energy>  (189) 
-12.788137178348768

>  <Energy_Delta>  (189) 
2.0596137705355257

>  <std_smi>  (189) 
CC(=O)Nc1nc(C)c(-c2ccccn2)s1

>  <enum_smi>  (189) 
CC(=O)Nc1nc(C)c(-c2ccccn2)s1

>  <enum_code>  (189) 
B

>  <o3da_score>  (189) 
80.143658119427826

>  <o3da_score_rel>  (189) 
0.31906354751667237

>  <o3da_align>  (189) 
0.34805128395134349

>  <RMSD>  (189) 
6.7834171011241885e-05

>  <CONVERGED>  (189) 
0

>  <ENERGY>  (189) 
-12.788137178789547

$$$$
38ce1dff-635b-49bf-aa41-0dda23e4ce8b
     RDKit          3D

 16 17  0  0  0  0  0  0  0  0999 V2000
   -4.5609   29.4234    6.5340 C   0  0  0  0  0  0  0  0  0  0  0  0
   -4.0451   28.9839    5.1855 C   0  0  0  0  0  0  0  0  0  0  0  0
   -4.3921   27.9066    4.7156 O   0  0  0  0  0  0  0  0  0  0  0  0
   -3.1795   29.9002    4.6343 N   0  0  0  0  0  0  0  0  0  0  0  0
   -2.5760   29.7079    3.4232 C   0  0  0  0  0  0  0  0  0  0  0  0
   -2.6746   28.7087    2.5928 N   0  0  0  0  0  0  0  0  0  0  0  0
   -1.8682   28.9364    1.4850 C   0  0  0  0  0  0  0  0  0  0  0  0
   -1.8388   27.8889    0.4282 C   0  0  0  0  0  0  0  0  0  0  0  0
   -1.1787   30.1461    1.4922 C   0  0  0  0  0  0  0  0  0  0  0  0
   -0.2456   30.7080    0.5099 C   0  0  0  0  0  0  0  0  0  0  0  0
   -0.1024   32.0750    0.2816 C   0  0  0  0  0  0  0  0  0  0  0  0
    0.8124   32.5070   -0.6773 C   0  0  0  0  0  0  0  0  0  0  0  0
    1.5558   31.5690   -1.3813 C   0  0  0  0  0  0  0  0  0  0  0  0
    1.3499   30.2306   -1.0987 C   0  0  0  0  0  0  0  0  0  0  0  0
    0.4691   29.7838   -0.1768 N   0  0  0  0  0  0  0  0  0  0  0  0
   -1.5506   30.9830    2.9551 S   0  0  0  0  0  0  0  0  0  0  0  0
  1  2  1  0
  2  3  2  0
  2  4  1  0
  4  5  1  0
  5  6  2  0
  6  7  1  0
  7  8  1  0
  7  9  2  0
  9 10  1  0
 10 11  2  0
 11 12  1  0
 12 13  2  0
 13 14  1  0
 14 15  2  0
  9 16  1  0
 16  5  1  0
 15 10  1  0
M  END
>  <Energy>  (190) 
-12.78813717830716

>  <Energy_Delta>  (190) 
2.0596137705771334

>  <std_smi>  (190) 
CC(=O)Nc1nc(C)c(-c2ccccn2)s1

>  <enum_smi>  (190) 
CC(=O)Nc1nc(C)c(-c2ccccn2)s1

>  <enum_code>  (190) 
B

>  <o3da_score>  (190) 
72.831568066407499

>  <o3da_score_rel>  (190) 
0.28995305459904891

>  <o3da_align>  (190) 
0.36946951908479142

>  <RMSD>  (190) 
0.015301269050745676

>  <CONVERGED>  (190) 
0

>  <ENERGY>  (190) 
-12.779549502295133

$$$$
38ce1dff-635b-49bf-aa41-0dda23e4ce8b
     RDKit          3D

 16 17  0  0  0  0  0  0  0  0999 V2000
   -0.4719   30.7473    0.2664 C   0  0  0  0  0  0  0  0  0  0  0  0
   -1.2886   30.5627    1.5219 C   0  0  0  0  0  0  0  0  0  0  0  0
   -1.5137   31.5177    2.2565 O   0  0  0  0  0  0  0  0  0  0  0  0
   -1.6756   29.2557    1.7047 N   0  0  0  0  0  0  0  0  0  0  0  0
   -2.4333   28.8529    2.7680 C   0  0  0  0  0  0  0  0  0  0  0  0
   -2.9303   29.5531    3.7502 N   0  0  0  0  0  0  0  0  0  0  0  0
   -3.6535   28.7259    4.5972 C   0  0  0  0  0  0  0  0  0  0  0  0
   -4.3351   29.3608    5.7567 C   0  0  0  0  0  0  0  0  0  0  0  0
   -3.6581   27.3818    4.2419 C   0  0  0  0  0  0  0  0  0  0  0  0
   -4.2639   26.2225    4.8923 C   0  0  0  0  0  0  0  0  0  0  0  0
   -4.1432   26.0023    6.2612 C   0  0  0  0  0  0  0  0  0  0  0  0
   -4.7570   24.8816    6.8156 C   0  0  0  0  0  0  0  0  0  0  0  0
   -5.4695   24.0185    5.9921 C   0  0  0  0  0  0  0  0  0  0  0  0
   -5.5368   24.3112    4.6406 C   0  0  0  0  0  0  0  0  0  0  0  0
   -4.9514   25.3889    4.0746 N   0  0  0  0  0  0  0  0  0  0  0  0
   -2.7599   27.1827    2.7844 S   0  0  0  0  0  0  0  0  0  0  0  0
  1  2  1  0
  2  3  2  0
  2  4  1  0
  4  5  1  0
  5  6  2  0
  6  7  1  0
  7  8  1  0
  7  9  2  0
  9 10  1  0
 10 11  2  0
 11 12  1  0
 12 13  2  0
 13 14  1  0
 14 15  2  0
  9 16  1  0
 16  5  1  0
 15 10  1  0
M  END
>  <Energy>  (191) 
-11.970678571815665

>  <Energy_Delta>  (191) 
2.8770723770686288

>  <std_smi>  (191) 
CC(=O)Nc1nc(C)c(-c2ccccn2)s1

>  <enum_smi>  (191) 
CC(=O)Nc1nc(C)c(-c2ccccn2)s1

>  <enum_code>  (191) 
B

>  <o3da_score>  (191) 
69.601254121535277

>  <o3da_score_rel>  (191) 
0.27709270543320941

>  <o3da_align>  (191) 
0.41632511475198181

>  <RMSD>  (191) 
6.2738978174939317e-05

>  <CONVERGED>  (191) 
0

>  <ENERGY>  (191) 
-11.970678572078327

$$$$
38ce1dff-635b-49bf-aa41-0dda23e4ce8b
     RDKit          3D

 16 17  0  0  0  0  0  0  0  0999 V2000
   -0.3701   32.9189    1.8198 C   0  0  0  0  0  0  0  0  0  0  0  0
   -1.4904   32.2666    2.5925 C   0  0  0  0  0  0  0  0  0  0  0  0
   -2.3581   32.9551    3.1175 O   0  0  0  0  0  0  0  0  0  0  0  0
   -1.3738   30.8968    2.6263 N   0  0  0  0  0  0  0  0  0  0  0  0
   -2.2643   30.0969    3.2853 C   0  0  0  0  0  0  0  0  0  0  0  0
   -3.3279   30.4196    3.9684 N   0  0  0  0  0  0  0  0  0  0  0  0
   -3.9222   29.2752    4.4799 C   0  0  0  0  0  0  0  0  0  0  0  0
   -5.1288   29.4525    5.3313 C   0  0  0  0  0  0  0  0  0  0  0  0
   -3.2960   28.0834    4.1329 C   0  0  0  0  0  0  0  0  0  0  0  0
   -3.6393   26.6972    4.4409 C   0  0  0  0  0  0  0  0  0  0  0  0
   -4.9379   26.2152    4.3060 C   0  0  0  0  0  0  0  0  0  0  0  0
   -5.1950   24.8849    4.6289 C   0  0  0  0  0  0  0  0  0  0  0  0
   -4.1543   24.0793    5.0747 C   0  0  0  0  0  0  0  0  0  0  0  0
   -2.8921   24.6389    5.1769 C   0  0  0  0  0  0  0  0  0  0  0  0
   -2.6125   25.9243    4.8702 N   0  0  0  0  0  0  0  0  0  0  0  0
   -1.9071   28.4365    3.1751 S   0  0  0  0  0  0  0  0  0  0  0  0
  1  2  1  0
  2  3  2  0
  2  4  1  0
  4  5  1  0
  5  6  2  0
  6  7  1  0
  7  8  1  0
  7  9  2  0
  9 10  1  0
 10 11  2  0
 11 12  1  0
 12 13  2  0
 13 14  1  0
 14 15  2  0
  9 16  1  0
 16  5  1  0
 15 10  1  0
M  END
>  <Energy>  (192) 
-11.97067857147257

>  <Energy_Delta>  (192) 
2.8770723774117233

>  <std_smi>  (192) 
CC(=O)Nc1nc(C)c(-c2ccccn2)s1

>  <enum_smi>  (192) 
CC(=O)Nc1nc(C)c(-c2ccccn2)s1

>  <enum_code>  (192) 
B

>  <o3da_score>  (192) 
69.017704847286382

>  <o3da_score_rel>  (192) 
0.27476951098511998

>  <o3da_align>  (192) 
0.59469832625443764

>  <RMSD>  (192) 
0.014148156686327559

>  <CONVERGED>  (192) 
0

>  <ENERGY>  (192) 
-11.960427250090238

$$$$
38ce1dff-635b-49bf-aa41-0dda23e4ce8b
     RDKit          3D

 16 17  0  0  0  0  0  0  0  0999 V2000
   -1.1966   32.6944    2.1386 C   0  0  0  0  0  0  0  0  0  0  0  0
   -1.5080   31.2468    2.4299 C   0  0  0  0  0  0  0  0  0  0  0  0
   -0.8147   30.3563    1.9516 O   0  0  0  0  0  0  0  0  0  0  0  0
   -2.5867   31.1113    3.2713 N   0  0  0  0  0  0  0  0  0  0  0  0
   -3.1326   29.9451    3.7404 C   0  0  0  0  0  0  0  0  0  0  0  0
   -4.1671   29.9703    4.5422 N   0  0  0  0  0  0  0  0  0  0  0  0
   -4.5354   28.6718    4.8792 C   0  0  0  0  0  0  0  0  0  0  0  0
   -5.6979   28.5039    5.7940 C   0  0  0  0  0  0  0  0  0  0  0  0
   -3.7636   27.6664    4.3013 C   0  0  0  0  0  0  0  0  0  0  0  0
   -3.8527   26.2045    4.4308 C   0  0  0  0  0  0  0  0  0  0  0  0
   -3.3163   25.3109    3.5049 C   0  0  0  0  0  0  0  0  0  0  0  0
   -3.4572   23.9411    3.7232 C   0  0  0  0  0  0  0  0  0  0  0  0
   -4.1279   23.4968    4.8539 C   0  0  0  0  0  0  0  0  0  0  0  0
   -4.6358   24.4458    5.7221 C   0  0  0  0  0  0  0  0  0  0  0  0
   -4.5162   25.7787    5.5344 N   0  0  0  0  0  0  0  0  0  0  0  0
   -2.5433   28.4097    3.3366 S   0  0  0  0  0  0  0  0  0  0  0  0
  1  2  1  0
  2  3  2  0
  2  4  1  0
  4  5  1  0
  5  6  2  0
  6  7  1  0
  7  8  1  0
  7  9  2  0
  9 10  1  0
 10 11  2  0
 11 12  1  0
 12 13  2  0
 13 14  1  0
 14 15  2  0
  9 16  1  0
 16  5  1  0
 15 10  1  0
M  END
>  <Energy>  (193) 
-11.519696723986362

>  <Energy_Delta>  (193) 
3.3280542248979312

>  <std_smi>  (193) 
CC(=O)Nc1nc(C)c(-c2ccccn2)s1

>  <enum_smi>  (193) 
CC(=O)Nc1nc(C)c(-c2ccccn2)s1

>  <enum_code>  (193) 
B

>  <o3da_score>  (193) 
81.066152775000816

>  <o3da_score_rel>  (193) 
0.32273613277518004

>  <o3da_align>  (193) 
0.53637442310683792

>  <RMSD>  (193) 
0.84677649463612203

>  <CONVERGED>  (193) 
1

>  <ENERGY>  (193) 
-14.825370732438959

$$$$
38ce1dff-635b-49bf-aa41-0dda23e4ce8b
     RDKit          3D

 16 17  0  0  0  0  0  0  0  0999 V2000
   -0.5081   32.9868    1.1738 C   0  0  0  0  0  0  0  0  0  0  0  0
   -0.9182   31.5800    1.5364 C   0  0  0  0  0  0  0  0  0  0  0  0
   -0.6287   30.6459    0.7981 O   0  0  0  0  0  0  0  0  0  0  0  0
   -1.6262   31.5335    2.7136 N   0  0  0  0  0  0  0  0  0  0  0  0
   -2.1643   30.4270    3.3177 C   0  0  0  0  0  0  0  0  0  0  0  0
   -2.7939   30.5368    4.4637 N   0  0  0  0  0  0  0  0  0  0  0  0
   -3.2565   29.2912    4.8667 C   0  0  0  0  0  0  0  0  0  0  0  0
   -4.0252   29.2051    6.1365 C   0  0  0  0  0  0  0  0  0  0  0  0
   -2.9431   28.2484    4.0075 C   0  0  0  0  0  0  0  0  0  0  0  0
   -3.2264   26.8234    4.1083 C   0  0  0  0  0  0  0  0  0  0  0  0
   -2.7715   26.0652    5.1824 C   0  0  0  0  0  0  0  0  0  0  0  0
   -3.0924   24.7109    5.2238 C   0  0  0  0  0  0  0  0  0  0  0  0
   -3.8543   24.1608    4.1995 C   0  0  0  0  0  0  0  0  0  0  0  0
   -4.2675   24.9916    3.1711 C   0  0  0  0  0  0  0  0  0  0  0  0
   -3.9754   26.3083    3.1055 N   0  0  0  0  0  0  0  0  0  0  0  0
   -2.0717   28.8636    2.6626 S   0  0  0  0  0  0  0  0  0  0  0  0
  1  2  1  0
  2  3  2  0
  2  4  1  0
  4  5  1  0
  5  6  2  0
  6  7  1  0
  7  8  1  0
  7  9  2  0
  9 10  1  0
 10 11  2  0
 11 12  1  0
 12 13  2  0
 13 14  1  0
 14 15  2  0
  9 16  1  0
 16  5  1  0
 15 10  1  0
M  END
>  <Energy>  (194) 
-11.519696723576967

>  <Energy_Delta>  (194) 
3.3280542253073264

>  <std_smi>  (194) 
CC(=O)Nc1nc(C)c(-c2ccccn2)s1

>  <enum_smi>  (194) 
CC(=O)Nc1nc(C)c(-c2ccccn2)s1

>  <enum_code>  (194) 
B

>  <o3da_score>  (194) 
61.45860576913163

>  <o3da_score_rel>  (194) 
0.24467563924904306

>  <o3da_align>  (194) 
0.46262049212162132

>  <RMSD>  (194) 
0.019485828780724621

>  <CONVERGED>  (194) 
0

>  <ENERGY>  (194) 
-11.487812095697265

$$$$
827b6bcd-7d96-4961-9a09-cacedb44b5aa
     RDKit          3D

 16 17  0  0  0  0  0  0  0  0999 V2000
    0.7826   32.5378   -0.4936 C   0  0  0  0  0  0  0  0  0  0  0  0
    0.0210   32.1122    0.5160 C   0  0  0  0  0  0  0  0  0  0  0  0
   -0.1975   32.9851    1.5565 O   0  0  0  0  0  0  0  0  0  0  0  0
   -0.4996   30.8512    0.4742 N   0  0  0  0  0  0  0  0  0  0  0  0
   -1.2416   30.3754    1.4119 C   0  0  0  0  0  0  0  0  0  0  0  0
   -1.6020   31.0523    2.5523 N   0  0  0  0  0  0  0  0  0  0  0  0
   -2.3580   30.3028    3.3079 C   0  0  0  0  0  0  0  0  0  0  0  0
   -2.8512   30.8774    4.6033 C   0  0  0  0  0  0  0  0  0  0  0  0
   -2.6902   28.9163    2.8423 C   0  0  0  0  0  0  0  0  0  0  0  0
   -3.4232   27.9032    3.3588 C   0  0  0  0  0  0  0  0  0  0  0  0
   -4.1405   27.9468    4.6449 C   0  0  0  0  0  0  0  0  0  0  0  0
   -4.8530   26.8942    5.0958 C   0  0  0  0  0  0  0  0  0  0  0  0
   -4.9403   25.6708    4.3253 C   0  0  0  0  0  0  0  0  0  0  0  0
   -4.2926   25.6182    3.1538 C   0  0  0  0  0  0  0  0  0  0  0  0
   -3.5646   26.6829    2.6850 N   0  0  0  0  0  0  0  0  0  0  0  0
   -1.8764   28.7495    1.2944 S   0  0  0  0  0  0  0  0  0  0  0  0
  1  2  2  3
  2  3  1  0
  2  4  1  0
  4  5  2  3
  5  6  1  0
  6  7  2  0
  7  8  1  0
  7  9  1  0
  9 10  2  3
 10 11  1  0
 11 12  2  0
 12 13  1  0
 13 14  2  0
 14 15  1  0
  9 16  1  0
 16  5  1  0
 15 10  1  0
M  END
>  <Energy>  (195) 
-22.875951329860918

>  <Energy_Delta>  (195) 
0

>  <std_smi>  (195) 
CC(=O)Nc1nc(C)c(-c2ccccn2)s1

>  <enum_smi>  (195) 
C=C(O)N=C1N=C(C)C(=C2C=CC=CN2)S1

>  <enum_code>  (195) 
T

>  <parent_uuid>  (195) 
38ce1dff-635b-49bf-aa41-0dda23e4ce8b

>  <o3da_score>  (195) 
94.854557488131206

>  <o3da_score_rel>  (195) 
0.37762977533653103

>  <o3da_align>  (195) 
0.39714382035139578

>  <RMSD>  (195) 
6.0899964753621e-05

>  <CONVERGED>  (195) 
0

>  <ENERGY>  (195) 
-22.87595132999251

$$$$
827b6bcd-7d96-4961-9a09-cacedb44b5aa
     RDKit          3D

 16 17  0  0  0  0  0  0  0  0999 V2000
   -4.7827   26.8359    3.5692 C   0  0  0  0  0  0  0  0  0  0  0  0
   -3.8744   27.1956    4.4779 C   0  0  0  0  0  0  0  0  0  0  0  0
   -3.2281   26.2263    5.1971 O   0  0  0  0  0  0  0  0  0  0  0  0
   -3.6225   28.4828    4.8363 N   0  0  0  0  0  0  0  0  0  0  0  0
   -2.9544   29.2180    4.0100 C   0  0  0  0  0  0  0  0  0  0  0  0
   -2.4459   28.8144    2.8039 N   0  0  0  0  0  0  0  0  0  0  0  0
   -1.8147   29.7904    2.2152 C   0  0  0  0  0  0  0  0  0  0  0  0
   -1.1922   29.5236    0.8766 C   0  0  0  0  0  0  0  0  0  0  0  0
   -1.7467   31.1187    2.9068 C   0  0  0  0  0  0  0  0  0  0  0  0
   -1.1924   32.3126    2.5942 C   0  0  0  0  0  0  0  0  0  0  0  0
   -0.4451   32.6009    1.3577 C   0  0  0  0  0  0  0  0  0  0  0  0
    0.0796   33.8191    1.1137 C   0  0  0  0  0  0  0  0  0  0  0  0
   -0.0739   34.8990    2.0667 C   0  0  0  0  0  0  0  0  0  0  0  0
   -0.7511   34.6499    3.1955 C   0  0  0  0  0  0  0  0  0  0  0  0
   -1.2885   33.4141    3.4550 N   0  0  0  0  0  0  0  0  0  0  0  0
   -2.6176   30.8897    4.4161 S   0  0  0  0  0  0  0  0  0  0  0  0
  1  2  2  3
  2  3  1  0
  2  4  1  0
  4  5  2  3
  5  6  1  0
  6  7  2  0
  7  8  1  0
  7  9  1  0
  9 10  2  3
 10 11  1  0
 11 12  2  0
 12 13  1  0
 13 14  2  0
 14 15  1  0
  9 16  1  0
 16  5  1  0
 15 10  1  0
M  END
>  <Energy>  (196) 
-21.295578806478499

>  <Energy_Delta>  (196) 
1.5803725233824188

>  <std_smi>  (196) 
CC(=O)Nc1nc(C)c(-c2ccccn2)s1

>  <enum_smi>  (196) 
C=C(O)N=C1N=C(C)C(=C2C=CC=CN2)S1

>  <enum_code>  (196) 
T

>  <parent_uuid>  (196) 
38ce1dff-635b-49bf-aa41-0dda23e4ce8b

>  <o3da_score>  (196) 
73.479753589641689

>  <o3da_score_rel>  (196) 
0.29253357534572938

>  <o3da_align>  (196) 
0.54035690912954326

>  <RMSD>  (196) 
7.7899781924626848e-05

>  <CONVERGED>  (196) 
0

>  <ENERGY>  (196) 
-21.295578806548079

$$$$
827b6bcd-7d96-4961-9a09-cacedb44b5aa
     RDKit          3D

 16 17  0  0  0  0  0  0  0  0999 V2000
    0.4144   32.8036    1.4848 C   0  0  0  0  0  0  0  0  0  0  0  0
   -0.3496   32.1868    0.5816 C   0  0  0  0  0  0  0  0  0  0  0  0
   -0.8449   32.9022   -0.4755 O   0  0  0  0  0  0  0  0  0  0  0  0
   -0.5805   30.8469    0.5654 N   0  0  0  0  0  0  0  0  0  0  0  0
   -1.3924   30.3653    1.4477 C   0  0  0  0  0  0  0  0  0  0  0  0
   -2.0724   31.0857    2.3935 N   0  0  0  0  0  0  0  0  0  0  0  0
   -2.8176   30.3065    3.1249 C   0  0  0  0  0  0  0  0  0  0  0  0
   -3.6351   30.9316    4.2165 C   0  0  0  0  0  0  0  0  0  0  0  0
   -2.8156   28.8358    2.8345 C   0  0  0  0  0  0  0  0  0  0  0  0
   -3.4481   27.7706    3.3785 C   0  0  0  0  0  0  0  0  0  0  0  0
   -4.3894   27.8324    4.5100 C   0  0  0  0  0  0  0  0  0  0  0  0
   -4.9824   26.7250    5.0007 C   0  0  0  0  0  0  0  0  0  0  0  0
   -4.7132   25.4220    4.4283 C   0  0  0  0  0  0  0  0  0  0  0  0
   -3.8592   25.3520    3.3985 C   0  0  0  0  0  0  0  0  0  0  0  0
   -3.2506   26.4721    2.8902 N   0  0  0  0  0  0  0  0  0  0  0  0
   -1.7111   28.6418    1.4813 S   0  0  0  0  0  0  0  0  0  0  0  0
  1  2  2  3
  2  3  1  0
  2  4  1  0
  4  5  2  3
  5  6  1  0
  6  7  2  0
  7  8  1  0
  7  9  1  0
  9 10  2  3
 10 11  1  0
 11 12  2  0
 12 13  1  0
 13 14  2  0
 14 15  1  0
  9 16  1  0
 16  5  1  0
 15 10  1  0
M  END
>  <Energy>  (197) 
-21.29557880581271

>  <Energy_Delta>  (197) 
1.580372524048208

>  <std_smi>  (197) 
CC(=O)Nc1nc(C)c(-c2ccccn2)s1

>  <enum_smi>  (197) 
C=C(O)N=C1N=C(C)C(=C2C=CC=CN2)S1

>  <enum_code>  (197) 
T

>  <parent_uuid>  (197) 
38ce1dff-635b-49bf-aa41-0dda23e4ce8b

>  <o3da_score>  (197) 
77.8043380733926

>  <o3da_score_rel>  (197) 
0.30975037451984444

>  <o3da_align>  (197) 
0.55394877250949637

>  <RMSD>  (197) 
6.0625864641585492e-05

>  <CONVERGED>  (197) 
0

>  <ENERGY>  (197) 
-21.295578806628551

$$$$
827b6bcd-7d96-4961-9a09-cacedb44b5aa
     RDKit          3D

 16 17  0  0  0  0  0  0  0  0999 V2000
    0.7775   32.5392   -0.4240 C   0  0  0  0  0  0  0  0  0  0  0  0
   -0.0057   32.1010    0.5633 C   0  0  0  0  0  0  0  0  0  0  0  0
   -0.2638   32.9679    1.5999 O   0  0  0  0  0  0  0  0  0  0  0  0
   -0.5089   30.8336    0.5041 N   0  0  0  0  0  0  0  0  0  0  0  0
   -1.2700   30.3453    1.4198 C   0  0  0  0  0  0  0  0  0  0  0  0
   -1.6699   31.0139    2.5514 N   0  0  0  0  0  0  0  0  0  0  0  0
   -2.4358   30.2497    3.2809 C   0  0  0  0  0  0  0  0  0  0  0  0
   -2.9739   30.8108    4.5657 C   0  0  0  0  0  0  0  0  0  0  0  0
   -2.7386   28.8578    2.8028 C   0  0  0  0  0  0  0  0  0  0  0  0
   -3.4943   27.8857    3.3691 C   0  0  0  0  0  0  0  0  0  0  0  0
   -3.6551   26.5644    2.7058 C   0  0  0  0  0  0  0  0  0  0  0  0
   -4.3986   25.5771    3.2412 C   0  0  0  0  0  0  0  0  0  0  0  0
   -5.0787   25.7702    4.5020 C   0  0  0  0  0  0  0  0  0  0  0  0
   -4.9438   26.9546    5.1118 C   0  0  0  0  0  0  0  0  0  0  0  0
   -4.1875   27.9745    4.5782 N   0  0  0  0  0  0  0  0  0  0  0  0
   -1.8816   28.7133    1.2836 S   0  0  0  0  0  0  0  0  0  0  0  0
  1  2  2  3
  2  3  1  0
  2  4  1  0
  4  5  2  3
  5  6  1  0
  6  7  2  0
  7  8  1  0
  7  9  1  0
  9 10  2  3
 10 11  1  0
 11 12  2  0
 12 13  1  0
 13 14  2  0
 14 15  1  0
  9 16  1  0
 16  5  1  0
 15 10  1  0
M  END
>  <Energy>  (198) 
-20.644497069915673

>  <Energy_Delta>  (198) 
2.2314542599452452

>  <std_smi>  (198) 
CC(=O)Nc1nc(C)c(-c2ccccn2)s1

>  <enum_smi>  (198) 
C=C(O)N=C1N=C(C)C(=C2C=CC=CN2)S1

>  <enum_code>  (198) 
T

>  <parent_uuid>  (198) 
38ce1dff-635b-49bf-aa41-0dda23e4ce8b

>  <o3da_score>  (198) 
96.623145868059694

>  <o3da_score_rel>  (198) 
0.38467078264562909

>  <o3da_align>  (198) 
0.43260478998405943

>  <RMSD>  (198) 
7.5612151022056955e-05

>  <CONVERGED>  (198) 
0

>  <ENERGY>  (198) 
-20.644497069956699

$$$$
827b6bcd-7d96-4961-9a09-cacedb44b5aa
     RDKit          3D

 16 17  0  0  0  0  0  0  0  0999 V2000
   -3.6752   23.6191    4.5210 C   0  0  0  0  0  0  0  0  0  0  0  0
   -4.7139   24.4160    4.2657 C   0  0  0  0  0  0  0  0  0  0  0  0
   -5.7068   23.9820    3.4309 O   0  0  0  0  0  0  0  0  0  0  0  0
   -4.9133   25.6088    4.8816 N   0  0  0  0  0  0  0  0  0  0  0  0
   -4.3215   26.6615    4.4188 C   0  0  0  0  0  0  0  0  0  0  0  0
   -4.5345   27.8535    5.0610 N   0  0  0  0  0  0  0  0  0  0  0  0
   -3.8806   28.8233    4.4880 C   0  0  0  0  0  0  0  0  0  0  0  0
   -4.0049   30.2004    5.0702 C   0  0  0  0  0  0  0  0  0  0  0  0
   -3.0476   28.5095    3.2839 C   0  0  0  0  0  0  0  0  0  0  0  0
   -2.2579   29.2468    2.4697 C   0  0  0  0  0  0  0  0  0  0  0  0
   -2.0130   30.6927    2.6104 C   0  0  0  0  0  0  0  0  0  0  0  0
   -1.2131   31.3631    1.7564 C   0  0  0  0  0  0  0  0  0  0  0  0
   -0.5590   30.6802    0.6592 C   0  0  0  0  0  0  0  0  0  0  0  0
   -0.7716   29.3647    0.5213 C   0  0  0  0  0  0  0  0  0  0  0  0
   -1.5822   28.6718    1.3850 N   0  0  0  0  0  0  0  0  0  0  0  0
   -3.2622   26.7866    3.0237 S   0  0  0  0  0  0  0  0  0  0  0  0
  1  2  2  3
  2  3  1  0
  2  4  1  0
  4  5  2  3
  5  6  1  0
  6  7  2  0
  7  8  1  0
  7  9  1  0
  9 10  2  3
 10 11  1  0
 11 12  2  0
 12 13  1  0
 13 14  2  0
 14 15  1  0
  9 16  1  0
 16  5  1  0
 15 10  1  0
M  END
>  <Energy>  (199) 
-19.398790081088016

>  <Energy_Delta>  (199) 
3.4771612487729016

>  <std_smi>  (199) 
CC(=O)Nc1nc(C)c(-c2ccccn2)s1

>  <enum_smi>  (199) 
C=C(O)N=C1N=C(C)C(=C2C=CC=CN2)S1

>  <enum_code>  (199) 
T

>  <parent_uuid>  (199) 
38ce1dff-635b-49bf-aa41-0dda23e4ce8b

>  <o3da_score>  (199) 
80.417009756608948

>  <o3da_score_rel>  (199) 
0.32015180010115674

>  <o3da_align>  (199) 
0.51252276085802084

>  <RMSD>  (199) 
7.8908265822885687e-05

>  <CONVERGED>  (199) 
0

>  <ENERGY>  (199) 
-19.398790081277781

$$$$
827b6bcd-7d96-4961-9a09-cacedb44b5aa
     RDKit          3D

 16 17  0  0  0  0  0  0  0  0999 V2000
   -2.5969   27.6007    5.7227 C   0  0  0  0  0  0  0  0  0  0  0  0
   -3.3156   27.8229    4.6213 C   0  0  0  0  0  0  0  0  0  0  0  0
   -4.6794   27.8837    4.7076 O   0  0  0  0  0  0  0  0  0  0  0  0
   -2.7805   27.8801    3.3753 N   0  0  0  0  0  0  0  0  0  0  0  0
   -2.2746   28.9953    2.9595 C   0  0  0  0  0  0  0  0  0  0  0  0
   -1.7356   29.0268    1.6997 N   0  0  0  0  0  0  0  0  0  0  0  0
   -1.2671   30.2081    1.4146 C   0  0  0  0  0  0  0  0  0  0  0  0
   -0.6391   30.4133    0.0676 C   0  0  0  0  0  0  0  0  0  0  0  0
   -1.3843   31.2902    2.4430 C   0  0  0  0  0  0  0  0  0  0  0  0
   -1.0125   32.5903    2.4853 C   0  0  0  0  0  0  0  0  0  0  0  0
   -0.3247   33.3096    1.3991 C   0  0  0  0  0  0  0  0  0  0  0  0
    0.0133   34.6102    1.5124 C   0  0  0  0  0  0  0  0  0  0  0  0
   -0.2900   35.3549    2.7171 C   0  0  0  0  0  0  0  0  0  0  0  0
   -0.9133   34.7118    3.7135 C   0  0  0  0  0  0  0  0  0  0  0  0
   -1.2608   33.3882    3.6102 N   0  0  0  0  0  0  0  0  0  0  0  0
   -2.1957   30.5334    3.8035 S   0  0  0  0  0  0  0  0  0  0  0  0
  1  2  2  3
  2  3  1  0
  2  4  1  0
  4  5  2  3
  5  6  1  0
  6  7  2  0
  7  8  1  0
  7  9  1  0
  9 10  2  3
 10 11  1  0
 11 12  2  0
 12 13  1  0
 13 14  2  0
 14 15  1  0
  9 16  1  0
 16  5  1  0
 15 10  1  0
M  END
>  <Energy>  (200) 
-19.398790081026803

>  <Energy_Delta>  (200) 
3.4771612488341148

>  <std_smi>  (200) 
CC(=O)Nc1nc(C)c(-c2ccccn2)s1

>  <enum_smi>  (200) 
C=C(O)N=C1N=C(C)C(=C2C=CC=CN2)S1

>  <enum_code>  (200) 
T

>  <parent_uuid>  (200) 
38ce1dff-635b-49bf-aa41-0dda23e4ce8b

>  <o3da_score>  (200) 
76.677582747606607

>  <o3da_score_rel>  (200) 
0.30526459785498522

>  <o3da_align>  (200) 
0.33076209398525203

>  <RMSD>  (200) 
5.8471397031387567e-05

>  <CONVERGED>  (200) 
0

>  <ENERGY>  (200) 
-19.398790081284076

$$$$
827b6bcd-7d96-4961-9a09-cacedb44b5aa
     RDKit          3D

 16 17  0  0  0  0  0  0  0  0999 V2000
    0.9342   32.4619    1.5399 C   0  0  0  0  0  0  0  0  0  0  0  0
   -0.0483   32.1384    0.6973 C   0  0  0  0  0  0  0  0  0  0  0  0
   -0.5437   33.0927   -0.1503 O   0  0  0  0  0  0  0  0  0  0  0  0
   -0.5236   30.8756    0.5289 N   0  0  0  0  0  0  0  0  0  0  0  0
   -1.2821   30.3893    1.4550 C   0  0  0  0  0  0  0  0  0  0  0  0
   -1.6800   31.0395    2.5925 N   0  0  0  0  0  0  0  0  0  0  0  0
   -2.4488   30.2761    3.3149 C   0  0  0  0  0  0  0  0  0  0  0  0
   -2.9813   30.8284    4.6055 C   0  0  0  0  0  0  0  0  0  0  0  0
   -2.7608   28.8922    2.8220 C   0  0  0  0  0  0  0  0  0  0  0  0
   -3.5202   27.9178    3.3792 C   0  0  0  0  0  0  0  0  0  0  0  0
   -3.6914   26.6053    2.7013 C   0  0  0  0  0  0  0  0  0  0  0  0
   -4.4391   25.6165    3.2282 C   0  0  0  0  0  0  0  0  0  0  0  0
   -5.1133   25.7992    4.4937 C   0  0  0  0  0  0  0  0  0  0  0  0
   -4.9686   26.9756    5.1168 C   0  0  0  0  0  0  0  0  0  0  0  0
   -4.2082   27.9967    4.5918 N   0  0  0  0  0  0  0  0  0  0  0  0
   -1.9093   28.7613    1.2977 S   0  0  0  0  0  0  0  0  0  0  0  0
  1  2  2  3
  2  3  1  0
  2  4  1  0
  4  5  2  3
  5  6  1  0
  6  7  2  0
  7  8  1  0
  7  9  1  0
  9 10  2  3
 10 11  1  0
 11 12  2  0
 12 13  1  0
 13 14  2  0
 14 15  1  0
  9 16  1  0
 16  5  1  0
 15 10  1  0
M  END
>  <Energy>  (201) 
-19.151637046556914

>  <Energy_Delta>  (201) 
3.7243142833040039

>  <std_smi>  (201) 
CC(=O)Nc1nc(C)c(-c2ccccn2)s1

>  <enum_smi>  (201) 
C=C(O)N=C1N=C(C)C(=C2C=CC=CN2)S1

>  <enum_code>  (201) 
T

>  <parent_uuid>  (201) 
38ce1dff-635b-49bf-aa41-0dda23e4ce8b

>  <o3da_score>  (201) 
76.261382768990913

>  <o3da_score_rel>  (201) 
0.30360764526797451

>  <o3da_align>  (201) 
0.47233475869449648

>  <RMSD>  (201) 
6.8628944330864002e-05

>  <CONVERGED>  (201) 
0

>  <ENERGY>  (201) 
-19.151637046754125

$$$$
827b6bcd-7d96-4961-9a09-cacedb44b5aa
     RDKit          3D

 16 17  0  0  0  0  0  0  0  0999 V2000
   -0.8169   33.2321    0.4945 C   0  0  0  0  0  0  0  0  0  0  0  0
   -0.0660   32.1462    0.6867 C   0  0  0  0  0  0  0  0  0  0  0  0
    1.2724   32.2938    0.9339 O   0  0  0  0  0  0  0  0  0  0  0  0
   -0.5151   30.8719    0.5340 N   0  0  0  0  0  0  0  0  0  0  0  0
   -1.2842   30.3903    1.4537 C   0  0  0  0  0  0  0  0  0  0  0  0
   -1.6758   31.0377    2.5949 N   0  0  0  0  0  0  0  0  0  0  0  0
   -2.4425   30.2733    3.3187 C   0  0  0  0  0  0  0  0  0  0  0  0
   -2.9685   30.8227    4.6131 C   0  0  0  0  0  0  0  0  0  0  0  0
   -2.7576   28.8908    2.8239 C   0  0  0  0  0  0  0  0  0  0  0  0
   -3.5195   27.9175    3.3796 C   0  0  0  0  0  0  0  0  0  0  0  0
   -3.6925   26.6058    2.7006 C   0  0  0  0  0  0  0  0  0  0  0  0
   -4.4425   25.6180    3.2261 C   0  0  0  0  0  0  0  0  0  0  0  0
   -5.1179   25.8012    4.4909 C   0  0  0  0  0  0  0  0  0  0  0  0
   -4.9722   26.9771    5.1147 C   0  0  0  0  0  0  0  0  0  0  0  0
   -4.2090   27.9971    4.5914 N   0  0  0  0  0  0  0  0  0  0  0  0
   -1.9050   28.7594    1.3002 S   0  0  0  0  0  0  0  0  0  0  0  0
  1  2  2  3
  2  3  1  0
  2  4  1  0
  4  5  2  3
  5  6  1  0
  6  7  2  0
  7  8  1  0
  7  9  1  0
  9 10  2  3
 10 11  1  0
 11 12  2  0
 12 13  1  0
 13 14  2  0
 14 15  1  0
  9 16  1  0
 16  5  1  0
 15 10  1  0
M  END
>  <Energy>  (202) 
-19.151637046496372

>  <Energy_Delta>  (202) 
3.7243142833645457

>  <std_smi>  (202) 
CC(=O)Nc1nc(C)c(-c2ccccn2)s1

>  <enum_smi>  (202) 
C=C(O)N=C1N=C(C)C(=C2C=CC=CN2)S1

>  <enum_code>  (202) 
T

>  <parent_uuid>  (202) 
38ce1dff-635b-49bf-aa41-0dda23e4ce8b

>  <o3da_score>  (202) 
76.288343165369952

>  <o3da_score_rel>  (202) 
0.30371497852319396

>  <o3da_align>  (202) 
0.4717177297804715

>  <RMSD>  (202) 
7.3891299003457316e-05

>  <CONVERGED>  (202) 
0

>  <ENERGY>  (202) 
-19.151637046755013

$$$$
827b6bcd-7d96-4961-9a09-cacedb44b5aa
     RDKit          3D

 16 17  0  0  0  0  0  0  0  0999 V2000
   -3.2214   25.8166    5.2049 C   0  0  0  0  0  0  0  0  0  0  0  0
   -4.2367   26.6016    4.8420 C   0  0  0  0  0  0  0  0  0  0  0  0
   -5.2569   26.0807    4.0942 O   0  0  0  0  0  0  0  0  0  0  0  0
   -4.3871   27.8807    5.2705 N   0  0  0  0  0  0  0  0  0  0  0  0
   -3.7623   28.8284    4.6509 C   0  0  0  0  0  0  0  0  0  0  0  0
   -3.9263   30.1105    5.1055 N   0  0  0  0  0  0  0  0  0  0  0  0
   -3.2381   30.9534    4.3907 C   0  0  0  0  0  0  0  0  0  0  0  0
   -3.3096   32.4093    4.7507 C   0  0  0  0  0  0  0  0  0  0  0  0
   -2.4189   30.4291    3.2488 C   0  0  0  0  0  0  0  0  0  0  0  0
   -1.6126   31.0846    2.3790 C   0  0  0  0  0  0  0  0  0  0  0  0
   -0.8997   30.3499    1.3004 C   0  0  0  0  0  0  0  0  0  0  0  0
   -0.0889   30.9712    0.4225 C   0  0  0  0  0  0  0  0  0  0  0  0
    0.1227   32.3991    0.5005 C   0  0  0  0  0  0  0  0  0  0  0  0
   -0.5125   33.0750    1.4663 C   0  0  0  0  0  0  0  0  0  0  0  0
   -1.3488   32.4559    2.3686 N   0  0  0  0  0  0  0  0  0  0  0  0
   -2.7135   28.7050    3.2494 S   0  0  0  0  0  0  0  0  0  0  0  0
  1  2  2  3
  2  3  1  0
  2  4  1  0
  4  5  2  3
  5  6  1  0
  6  7  2  0
  7  8  1  0
  7  9  1  0
  9 10  2  3
 10 11  1  0
 11 12  2  0
 12 13  1  0
 13 14  2  0
 14 15  1  0
  9 16  1  0
 16  5  1  0
 15 10  1  0
M  END
>  <Energy>  (203) 
-17.265050925457956

>  <Energy_Delta>  (203) 
5.6109004044029618

>  <std_smi>  (203) 
CC(=O)Nc1nc(C)c(-c2ccccn2)s1

>  <enum_smi>  (203) 
C=C(O)N=C1N=C(C)C(=C2C=CC=CN2)S1

>  <enum_code>  (203) 
T

>  <parent_uuid>  (203) 
38ce1dff-635b-49bf-aa41-0dda23e4ce8b

>  <o3da_score>  (203) 
91.045187351484486

>  <o3da_score_rel>  (203) 
0.36246411933675904

>  <o3da_align>  (203) 
0.43395243139821704

>  <RMSD>  (203) 
6.3392447024733818e-05

>  <CONVERGED>  (203) 
0

>  <ENERGY>  (203) 
-17.265050925735459

$$$$
827b6bcd-7d96-4961-9a09-cacedb44b5aa
     RDKit          3D

 16 17  0  0  0  0  0  0  0  0999 V2000
   -5.0447   26.1465    3.8077 C   0  0  0  0  0  0  0  0  0  0  0  0
   -4.2852   26.6149    4.7990 C   0  0  0  0  0  0  0  0  0  0  0  0
   -3.4527   25.7619    5.4703 O   0  0  0  0  0  0  0  0  0  0  0  0
   -4.3686   27.8838    5.2734 N   0  0  0  0  0  0  0  0  0  0  0  0
   -3.7192   28.8246    4.6688 C   0  0  0  0  0  0  0  0  0  0  0  0
   -3.8234   30.0980    5.1639 N   0  0  0  0  0  0  0  0  0  0  0  0
   -3.1224   30.9356    4.4554 C   0  0  0  0  0  0  0  0  0  0  0  0
   -3.1203   32.3799    4.8657 C   0  0  0  0  0  0  0  0  0  0  0  0
   -2.3545   30.4157    3.2764 C   0  0  0  0  0  0  0  0  0  0  0  0
   -1.5769   31.0728    2.3820 C   0  0  0  0  0  0  0  0  0  0  0  0
   -0.8907   30.3384    1.2861 C   0  0  0  0  0  0  0  0  0  0  0  0
   -0.1142   30.9622    0.3793 C   0  0  0  0  0  0  0  0  0  0  0  0
    0.0812   32.3932    0.4391 C   0  0  0  0  0  0  0  0  0  0  0  0
   -0.5301   33.0688    1.4204 C   0  0  0  0  0  0  0  0  0  0  0  0
   -1.3230   32.4458    2.3583 N   0  0  0  0  0  0  0  0  0  0  0  0
   -2.6706   28.6955    3.2676 S   0  0  0  0  0  0  0  0  0  0  0  0
  1  2  2  3
  2  3  1  0
  2  4  1  0
  4  5  2  3
  5  6  1  0
  6  7  2  0
  7  8  1  0
  7  9  1  0
  9 10  2  3
 10 11  1  0
 11 12  2  0
 12 13  1  0
 13 14  2  0
 14 15  1  0
  9 16  1  0
 16  5  1  0
 15 10  1  0
M  END
>  <Energy>  (204) 
-17.265050925104831

>  <Energy_Delta>  (204) 
5.6109004047560873

>  <std_smi>  (204) 
CC(=O)Nc1nc(C)c(-c2ccccn2)s1

>  <enum_smi>  (204) 
C=C(O)N=C1N=C(C)C(=C2C=CC=CN2)S1

>  <enum_code>  (204) 
T

>  <parent_uuid>  (204) 
38ce1dff-635b-49bf-aa41-0dda23e4ce8b

>  <o3da_score>  (204) 
89.703902670237383

>  <o3da_score_rel>  (204) 
0.35712427013757797

>  <o3da_align>  (204) 
0.46691629194727258

>  <RMSD>  (204) 
6.2148182795269103e-05

>  <CONVERGED>  (204) 
0

>  <ENERGY>  (204) 
-17.265050925720764

$$$$
977ff2ec-33f0-44c8-bd73-30e006bbfb41
     RDKit          3D

 16 17  0  0  0  0  0  0  0  0999 V2000
   -0.1423   33.4750    1.5721 C   0  0  0  0  0  0  0  0  0  0  0  0
   -0.8690   32.6045    2.2754 C   0  0  0  0  0  0  0  0  0  0  0  0
   -1.4047   33.0416    3.4648 O   0  0  0  0  0  0  0  0  0  0  0  0
   -1.0468   31.3400    1.7933 N   0  0  0  0  0  0  0  0  0  0  0  0
   -1.7352   30.4504    2.4192 C   0  0  0  0  0  0  0  0  0  0  0  0
   -2.3674   30.6472    3.6244 N   0  0  0  0  0  0  0  0  0  0  0  0
   -2.9800   29.5543    3.9940 C   0  0  0  0  0  0  0  0  0  0  0  0
   -3.7388   29.5522    5.2923 C   0  0  0  0  0  0  0  0  0  0  0  0
   -2.8944   28.3536    3.1004 C   0  0  0  0  0  0  0  0  0  0  0  0
   -3.4496   27.1383    3.2955 C   0  0  0  0  0  0  0  0  0  0  0  0
   -3.2891   26.0434    2.3396 C   0  0  0  0  0  0  0  0  0  0  0  0
   -3.8326   24.8333    2.5179 C   0  0  0  0  0  0  0  0  0  0  0  0
   -4.6468   24.5210    3.7181 C   0  0  0  0  0  0  0  0  0  0  0  0
   -4.7376   25.7224    4.6209 C   0  0  0  0  0  0  0  0  0  0  0  0
   -4.2002   26.8878    4.4253 N   0  0  0  0  0  0  0  0  0  0  0  0
   -1.9231   28.8454    1.7427 S   0  0  0  0  0  0  0  0  0  0  0  0
  1  2  2  3
  2  3  1  0
  2  4  1  0
  4  5  2  3
  5  6  1  0
  6  7  2  0
  7  8  1  0
  7  9  1  0
  9 10  2  3
 10 11  1  0
 11 12  2  0
 12 13  1  0
 13 14  1  0
 14 15  2  0
  9 16  1  0
 16  5  1  0
 15 10  1  0
M  END
>  <Energy>  (205) 
-19.43926322305968

>  <Energy_Delta>  (205) 
0

>  <std_smi>  (205) 
CC(=O)Nc1nc(C)c(-c2ccccn2)s1

>  <enum_smi>  (205) 
C=C(O)N=C1N=C(C)C(=C2C=CCC=N2)S1

>  <enum_code>  (205) 
T

>  <parent_uuid>  (205) 
38ce1dff-635b-49bf-aa41-0dda23e4ce8b

>  <o3da_score>  (205) 
78.909379754425544

>  <o3da_score_rel>  (205) 
0.31414970601003861

>  <o3da_align>  (205) 
0.53829750540515631

>  <RMSD>  (205) 
6.3929086723137031e-05

>  <CONVERGED>  (205) 
0

>  <ENERGY>  (205) 
-19.43926322322001

$$$$
977ff2ec-33f0-44c8-bd73-30e006bbfb41
     RDKit          3D

 16 17  0  0  0  0  0  0  0  0999 V2000
    0.5533   34.6918   -1.1577 C   0  0  0  0  0  0  0  0  0  0  0  0
    1.2813   33.6360   -0.7899 C   0  0  0  0  0  0  0  0  0  0  0  0
    2.6418   33.7607   -0.7003 O   0  0  0  0  0  0  0  0  0  0  0  0
    0.7768   32.3862   -0.6094 N   0  0  0  0  0  0  0  0  0  0  0  0
    0.0739   32.1674    0.4528 C   0  0  0  0  0  0  0  0  0  0  0  0
   -0.1948   33.0770    1.4421 N   0  0  0  0  0  0  0  0  0  0  0  0
   -0.9240   32.5349    2.3771 C   0  0  0  0  0  0  0  0  0  0  0  0
   -1.3307   33.3716    3.5582 C   0  0  0  0  0  0  0  0  0  0  0  0
   -1.3196   31.0977    2.2234 C   0  0  0  0  0  0  0  0  0  0  0  0
   -2.0666   30.3515    3.0652 C   0  0  0  0  0  0  0  0  0  0  0  0
   -2.3825   28.9494    2.7952 C   0  0  0  0  0  0  0  0  0  0  0  0
   -3.1210   28.1957    3.6187 C   0  0  0  0  0  0  0  0  0  0  0  0
   -3.6757   28.7454    4.8802 C   0  0  0  0  0  0  0  0  0  0  0  0
   -3.2836   30.1896    5.0437 C   0  0  0  0  0  0  0  0  0  0  0  0
   -2.5648   30.8998    4.2288 N   0  0  0  0  0  0  0  0  0  0  0  0
   -0.6134   30.5742    0.7206 S   0  0  0  0  0  0  0  0  0  0  0  0
  1  2  2  3
  2  3  1  0
  2  4  1  0
  4  5  2  3
  5  6  1  0
  6  7  2  0
  7  8  1  0
  7  9  1  0
  9 10  2  3
 10 11  1  0
 11 12  2  0
 12 13  1  0
 13 14  1  0
 14 15  2  0
  9 16  1  0
 16  5  1  0
 15 10  1  0
M  END
>  <Energy>  (206) 
-17.443853664537585

>  <Energy_Delta>  (206) 
1.9954095585220948

>  <std_smi>  (206) 
CC(=O)Nc1nc(C)c(-c2ccccn2)s1

>  <enum_smi>  (206) 
C=C(O)N=C1N=C(C)C(=C2C=CCC=N2)S1

>  <enum_code>  (206) 
T

>  <parent_uuid>  (206) 
38ce1dff-635b-49bf-aa41-0dda23e4ce8b

>  <o3da_score>  (206) 
87.181776907577728

>  <o3da_score_rel>  (206) 
0.34708332102195094

>  <o3da_align>  (206) 
0.31488411675533812

>  <RMSD>  (206) 
6.3693914969138678e-05

>  <CONVERGED>  (206) 
0

>  <ENERGY>  (206) 
-17.443853664885363

$$$$
977ff2ec-33f0-44c8-bd73-30e006bbfb41
     RDKit          3D

 16 17  0  0  0  0  0  0  0  0999 V2000
    0.2507   32.3068   -2.2141 C   0  0  0  0  0  0  0  0  0  0  0  0
    1.0175   32.4286   -1.1292 C   0  0  0  0  0  0  0  0  0  0  0  0
    2.3641   32.2038   -1.2337 O   0  0  0  0  0  0  0  0  0  0  0  0
    0.5736   32.8857    0.0721 N   0  0  0  0  0  0  0  0  0  0  0  0
   -0.1629   32.0963    0.7826 C   0  0  0  0  0  0  0  0  0  0  0  0
   -0.5237   30.8163    0.4513 N   0  0  0  0  0  0  0  0  0  0  0  0
   -1.2634   30.2918    1.3882 C   0  0  0  0  0  0  0  0  0  0  0  0
   -1.7664   28.8856    1.2150 C   0  0  0  0  0  0  0  0  0  0  0  0
   -1.5738   31.1240    2.5952 C   0  0  0  0  0  0  0  0  0  0  0  0
   -2.3160   30.7782    3.6689 C   0  0  0  0  0  0  0  0  0  0  0  0
   -2.5438   31.6915    4.7881 C   0  0  0  0  0  0  0  0  0  0  0  0
   -3.2764   31.3648    5.8596 C   0  0  0  0  0  0  0  0  0  0  0  0
   -3.9151   30.0313    5.9815 C   0  0  0  0  0  0  0  0  0  0  0  0
   -3.6090   29.1873    4.7730 C   0  0  0  0  0  0  0  0  0  0  0  0
   -2.8941   29.5280    3.7445 N   0  0  0  0  0  0  0  0  0  0  0  0
   -0.7746   32.6484    2.3329 S   0  0  0  0  0  0  0  0  0  0  0  0
  1  2  2  3
  2  3  1  0
  2  4  1  0
  4  5  2  3
  5  6  1  0
  6  7  2  0
  7  8  1  0
  7  9  1  0
  9 10  2  3
 10 11  1  0
 11 12  2  0
 12 13  1  0
 13 14  1  0
 14 15  2  0
  9 16  1  0
 16  5  1  0
 15 10  1  0
M  END
>  <Energy>  (207) 
-17.443853664249104

>  <Energy_Delta>  (207) 
1.9954095588105751

>  <std_smi>  (207) 
CC(=O)Nc1nc(C)c(-c2ccccn2)s1

>  <enum_smi>  (207) 
C=C(O)N=C1N=C(C)C(=C2C=CCC=N2)S1

>  <enum_code>  (207) 
T

>  <parent_uuid>  (207) 
38ce1dff-635b-49bf-aa41-0dda23e4ce8b

>  <o3da_score>  (207) 
79.93452697101074

>  <o3da_score_rel>  (207) 
0.31823096602892997

>  <o3da_align>  (207) 
0.30016088816051617

>  <RMSD>  (207) 
6.314267494252262e-05

>  <CONVERGED>  (207) 
0

>  <ENERGY>  (207) 
-17.443853664867216

$$$$
977ff2ec-33f0-44c8-bd73-30e006bbfb41
     RDKit          3D

 16 17  0  0  0  0  0  0  0  0999 V2000
   -3.6968   23.5878    4.5233 C   0  0  0  0  0  0  0  0  0  0  0  0
   -4.7362   24.3795    4.2556 C   0  0  0  0  0  0  0  0  0  0  0  0
   -5.6858   23.9661    3.3619 O   0  0  0  0  0  0  0  0  0  0  0  0
   -4.9816   25.5428    4.9100 N   0  0  0  0  0  0  0  0  0  0  0  0
   -4.3873   26.6228    4.5178 C   0  0  0  0  0  0  0  0  0  0  0  0
   -4.6491   27.7847    5.1977 N   0  0  0  0  0  0  0  0  0  0  0  0
   -3.9861   28.7838    4.6866 C   0  0  0  0  0  0  0  0  0  0  0  0
   -4.1398   30.1478    5.3001 C   0  0  0  0  0  0  0  0  0  0  0  0
   -3.1030   28.5176    3.5078 C   0  0  0  0  0  0  0  0  0  0  0  0
   -2.3351   29.3999    2.8332 C   0  0  0  0  0  0  0  0  0  0  0  0
   -1.5136   29.0057    1.6893 C   0  0  0  0  0  0  0  0  0  0  0  0
   -0.7458   29.8668    1.0106 C   0  0  0  0  0  0  0  0  0  0  0  0
   -0.6786   31.3013    1.3828 C   0  0  0  0  0  0  0  0  0  0  0  0
   -1.5645   31.5811    2.5674 C   0  0  0  0  0  0  0  0  0  0  0  0
   -2.3012   30.7266    3.2094 N   0  0  0  0  0  0  0  0  0  0  0  0
   -3.2674   26.8182    3.1756 S   0  0  0  0  0  0  0  0  0  0  0  0
  1  2  2  3
  2  3  1  0
  2  4  1  0
  4  5  2  3
  5  6  1  0
  6  7  2  0
  7  8  1  0
  7  9  1  0
  9 10  2  3
 10 11  1  0
 11 12  2  0
 12 13  1  0
 13 14  1  0
 14 15  2  0
  9 16  1  0
 16  5  1  0
 15 10  1  0
M  END
>  <Energy>  (208) 
-15.495408375158956

>  <Energy_Delta>  (208) 
3.9438548479007238

>  <std_smi>  (208) 
CC(=O)Nc1nc(C)c(-c2ccccn2)s1

>  <enum_smi>  (208) 
C=C(O)N=C1N=C(C)C(=C2C=CCC=N2)S1

>  <enum_code>  (208) 
T

>  <parent_uuid>  (208) 
38ce1dff-635b-49bf-aa41-0dda23e4ce8b

>  <o3da_score>  (208) 
84.843069752648248

>  <o3da_score_rel>  (208) 
0.33777258803366556

>  <o3da_align>  (208) 
0.60998380718571044

>  <RMSD>  (208) 
6.1382482645864033e-05

>  <CONVERGED>  (208) 
0

>  <ENERGY>  (208) 
-15.495408375306821

$$$$
977ff2ec-33f0-44c8-bd73-30e006bbfb41
     RDKit          3D

 16 17  0  0  0  0  0  0  0  0999 V2000
   -5.5570   24.0472    3.2305 C   0  0  0  0  0  0  0  0  0  0  0  0
   -4.8312   24.4032    4.2914 C   0  0  0  0  0  0  0  0  0  0  0  0
   -3.9507   23.5093    4.8364 O   0  0  0  0  0  0  0  0  0  0  0  0
   -4.9939   25.5774    4.9521 N   0  0  0  0  0  0  0  0  0  0  0  0
   -4.3958   26.6360    4.5103 C   0  0  0  0  0  0  0  0  0  0  0  0
   -4.5790   27.8110    5.1934 N   0  0  0  0  0  0  0  0  0  0  0  0
   -3.9128   28.7831    4.6364 C   0  0  0  0  0  0  0  0  0  0  0  0
   -3.9898   30.1573    5.2416 C   0  0  0  0  0  0  0  0  0  0  0  0
   -3.1005   28.4763    3.4173 C   0  0  0  0  0  0  0  0  0  0  0  0
   -2.3446   29.3274    2.6909 C   0  0  0  0  0  0  0  0  0  0  0  0
   -1.5944   28.8946    1.5125 C   0  0  0  0  0  0  0  0  0  0  0  0
   -0.8418   29.7250    0.7806 C   0  0  0  0  0  0  0  0  0  0  0  0
   -0.7191   31.1628    1.1250 C   0  0  0  0  0  0  0  0  0  0  0  0
   -1.5316   31.4827    2.3513 C   0  0  0  0  0  0  0  0  0  0  0  0
   -2.2547   30.6576    3.0450 N   0  0  0  0  0  0  0  0  0  0  0  0
   -3.3281   26.7778    3.1197 S   0  0  0  0  0  0  0  0  0  0  0  0
  1  2  2  3
  2  3  1  0
  2  4  1  0
  4  5  2  3
  5  6  1  0
  6  7  2  0
  7  8  1  0
  7  9  1  0
  9 10  2  3
 10 11  1  0
 11 12  2  0
 12 13  1  0
 13 14  1  0
 14 15  2  0
  9 16  1  0
 16  5  1  0
 15 10  1  0
M  END
>  <Energy>  (209) 
-15.495408374511412

>  <Energy_Delta>  (209) 
3.9438548485482681

>  <std_smi>  (209) 
CC(=O)Nc1nc(C)c(-c2ccccn2)s1

>  <enum_smi>  (209) 
C=C(O)N=C1N=C(C)C(=C2C=CCC=N2)S1

>  <enum_code>  (209) 
T

>  <parent_uuid>  (209) 
38ce1dff-635b-49bf-aa41-0dda23e4ce8b

>  <o3da_score>  (209) 
87.415776019051179

>  <o3da_score_rel>  (209) 
0.34801490548383329

>  <o3da_align>  (209) 
0.67315751654614409

>  <RMSD>  (209) 
6.5812165619421212e-05

>  <CONVERGED>  (209) 
0

>  <ENERGY>  (209) 
-15.495408375297639

$$$$
977ff2ec-33f0-44c8-bd73-30e006bbfb41
     RDKit          3D

 16 17  0  0  0  0  0  0  0  0999 V2000
    0.8320   32.5401   -0.4547 C   0  0  0  0  0  0  0  0  0  0  0  0
    0.0329   32.1183    0.5270 C   0  0  0  0  0  0  0  0  0  0  0  0
   -0.2267   32.9956    1.5544 O   0  0  0  0  0  0  0  0  0  0  0  0
   -0.4854   30.8570    0.4706 N   0  0  0  0  0  0  0  0  0  0  0  0
   -1.2532   30.3785    1.3866 C   0  0  0  0  0  0  0  0  0  0  0  0
   -1.6462   31.0586    2.5148 N   0  0  0  0  0  0  0  0  0  0  0  0
   -2.4005   30.3001    3.2627 C   0  0  0  0  0  0  0  0  0  0  0  0
   -2.9565   30.8959    4.5237 C   0  0  0  0  0  0  0  0  0  0  0  0
   -2.6807   28.8940    2.8177 C   0  0  0  0  0  0  0  0  0  0  0  0
   -3.3594   27.8613    3.3721 C   0  0  0  0  0  0  0  0  0  0  0  0
   -3.9800   27.8858    4.6907 C   0  0  0  0  0  0  0  0  0  0  0  0
   -4.7533   26.8948    5.1533 C   0  0  0  0  0  0  0  0  0  0  0  0
   -5.0244   25.6786    4.3466 C   0  0  0  0  0  0  0  0  0  0  0  0
   -4.2020   25.6985    3.0883 C   0  0  0  0  0  0  0  0  0  0  0  0
   -3.4605   26.6739    2.6646 N   0  0  0  0  0  0  0  0  0  0  0  0
   -1.8863   28.7565    1.2547 S   0  0  0  0  0  0  0  0  0  0  0  0
  1  2  2  3
  2  3  1  0
  2  4  1  0
  4  5  2  3
  5  6  1  0
  6  7  2  0
  7  8  1  0
  7  9  1  0
  9 10  2  3
 10 11  1  0
 11 12  2  0
 12 13  1  0
 13 14  1  0
 14 15  2  0
  9 16  1  0
 16  5  1  0
 15 10  1  0
M  END
>  <Energy>  (210) 
-11.557521637989618

>  <Energy_Delta>  (210) 
7.8817415850700616

>  <std_smi>  (210) 
CC(=O)Nc1nc(C)c(-c2ccccn2)s1

>  <enum_smi>  (210) 
C=C(O)N=C1N=C(C)C(=C2C=CCC=N2)S1

>  <enum_code>  (210) 
T

>  <parent_uuid>  (210) 
38ce1dff-635b-49bf-aa41-0dda23e4ce8b

>  <o3da_score>  (210) 
93.117590349823104

>  <o3da_score_rel>  (210) 
0.37071465678475979

>  <o3da_align>  (210) 
0.4090277694657502

>  <RMSD>  (210) 
7.4144728233816227e-05

>  <CONVERGED>  (210) 
0

>  <ENERGY>  (210) 
-11.557521637794977

$$$$
977ff2ec-33f0-44c8-bd73-30e006bbfb41
     RDKit          3D

 16 17  0  0  0  0  0  0  0  0999 V2000
   -3.8463   29.1591    3.2144 C   0  0  0  0  0  0  0  0  0  0  0  0
   -2.6046   28.7163    3.0093 C   0  0  0  0  0  0  0  0  0  0  0  0
   -2.0590   27.8211    3.8898 O   0  0  0  0  0  0  0  0  0  0  0  0
   -1.8670   29.0004    1.9031 N   0  0  0  0  0  0  0  0  0  0  0  0
   -1.3563   30.1837    1.8063 C   0  0  0  0  0  0  0  0  0  0  0  0
   -1.4679   31.1822    2.7377 N   0  0  0  0  0  0  0  0  0  0  0  0
   -0.8538   32.2592    2.3379 C   0  0  0  0  0  0  0  0  0  0  0  0
   -0.8460   33.4426    3.2613 C   0  0  0  0  0  0  0  0  0  0  0  0
   -0.1813   32.2492    0.9964 C   0  0  0  0  0  0  0  0  0  0  0  0
    0.4782   33.1904    0.2797 C   0  0  0  0  0  0  0  0  0  0  0  0
    0.6404   34.5811    0.6847 C   0  0  0  0  0  0  0  0  0  0  0  0
    1.4036   35.4541    0.0142 C   0  0  0  0  0  0  0  0  0  0  0  0
    2.1382   35.0613   -1.2142 C   0  0  0  0  0  0  0  0  0  0  0  0
    1.7664   33.6607   -1.6145 C   0  0  0  0  0  0  0  0  0  0  0  0
    1.0236   32.8360   -0.9444 N   0  0  0  0  0  0  0  0  0  0  0  0
   -0.4073   30.6098    0.3995 S   0  0  0  0  0  0  0  0  0  0  0  0
  1  2  2  3
  2  3  1  0
  2  4  1  0
  4  5  2  3
  5  6  1  0
  6  7  2  0
  7  8  1  0
  7  9  1  0
  9 10  2  3
 10 11  1  0
 11 12  2  0
 12 13  1  0
 13 14  1  0
 14 15  2  0
  9 16  1  0
 16  5  1  0
 15 10  1  0
M  END
>  <Energy>  (211) 
-10.097064569976828

>  <Energy_Delta>  (211) 
9.3421986530828516

>  <std_smi>  (211) 
CC(=O)Nc1nc(C)c(-c2ccccn2)s1

>  <enum_smi>  (211) 
C=C(O)N=C1N=C(C)C(=C2C=CCC=N2)S1

>  <enum_code>  (211) 
T

>  <parent_uuid>  (211) 
38ce1dff-635b-49bf-aa41-0dda23e4ce8b

>  <o3da_score>  (211) 
74.400193093381972

>  <o3da_score_rel>  (211) 
0.29619797874618597

>  <o3da_align>  (211) 
0.49979686331431011

>  <RMSD>  (211) 
0.13294897018186716

>  <CONVERGED>  (211) 
0

>  <ENERGY>  (211) 
-10.094985995225921

$$$$
977ff2ec-33f0-44c8-bd73-30e006bbfb41
     RDKit          3D

 16 17  0  0  0  0  0  0  0  0999 V2000
   -3.7101   24.3596    4.1824 C   0  0  0  0  0  0  0  0  0  0  0  0
   -2.8183   24.9002    5.0146 C   0  0  0  0  0  0  0  0  0  0  0  0
   -1.7823   24.1330    5.4758 O   0  0  0  0  0  0  0  0  0  0  0  0
   -2.9285   26.1466    5.5462 N   0  0  0  0  0  0  0  0  0  0  0  0
   -2.6827   27.1552    4.7762 C   0  0  0  0  0  0  0  0  0  0  0  0
   -2.2958   27.0848    3.4638 N   0  0  0  0  0  0  0  0  0  0  0  0
   -2.0901   28.2754    2.9772 C   0  0  0  0  0  0  0  0  0  0  0  0
   -1.6975   28.3814    1.5322 C   0  0  0  0  0  0  0  0  0  0  0  0
   -2.2709   29.4627    3.8768 C   0  0  0  0  0  0  0  0  0  0  0  0
   -2.0907   30.7942    3.7068 C   0  0  0  0  0  0  0  0  0  0  0  0
   -1.5716   31.4145    2.4943 C   0  0  0  0  0  0  0  0  0  0  0  0
   -1.5299   32.7408    2.3116 C   0  0  0  0  0  0  0  0  0  0  0  0
   -2.0053   33.6844    3.3541 C   0  0  0  0  0  0  0  0  0  0  0  0
   -2.3563   32.9349    4.6093 C   0  0  0  0  0  0  0  0  0  0  0  0
   -2.3877   31.6474    4.7582 N   0  0  0  0  0  0  0  0  0  0  0  0
   -2.8233   28.7829    5.4025 S   0  0  0  0  0  0  0  0  0  0  0  0
  1  2  2  3
  2  3  1  0
  2  4  1  0
  4  5  2  3
  5  6  1  0
  6  7  2  0
  7  8  1  0
  7  9  1  0
  9 10  2  3
 10 11  1  0
 11 12  2  0
 12 13  1  0
 13 14  1  0
 14 15  2  0
  9 16  1  0
 16  5  1  0
 15 10  1  0
M  END
>  <Energy>  (212) 
-10.09706456987097

>  <Energy_Delta>  (212) 
9.34219865318871

>  <std_smi>  (212) 
CC(=O)Nc1nc(C)c(-c2ccccn2)s1

>  <enum_smi>  (212) 
C=C(O)N=C1N=C(C)C(=C2C=CCC=N2)S1

>  <enum_code>  (212) 
T

>  <parent_uuid>  (212) 
38ce1dff-635b-49bf-aa41-0dda23e4ce8b

>  <o3da_score>  (212) 
74.227241835567582

>  <o3da_score_rel>  (212) 
0.2955094346597219

>  <o3da_align>  (212) 
0.58769786333837892

>  <RMSD>  (212) 
7.5331971158001091e-05

>  <CONVERGED>  (212) 
0

>  <ENERGY>  (212) 
-10.097064570023703

$$$$
977ff2ec-33f0-44c8-bd73-30e006bbfb41
     RDKit          3D

 16 17  0  0  0  0  0  0  0  0999 V2000
   -2.5851   27.7149    5.7672 C   0  0  0  0  0  0  0  0  0  0  0  0
   -3.3030   27.8586    4.6523 C   0  0  0  0  0  0  0  0  0  0  0  0
   -4.6691   27.8347    4.7236 O   0  0  0  0  0  0  0  0  0  0  0  0
   -2.7600   27.9101    3.4094 N   0  0  0  0  0  0  0  0  0  0  0  0
   -2.2941   29.0348    2.9719 C   0  0  0  0  0  0  0  0  0  0  0  0
   -1.7488   29.0540    1.7142 N   0  0  0  0  0  0  0  0  0  0  0  0
   -1.2932   30.2370    1.4166 C   0  0  0  0  0  0  0  0  0  0  0  0
   -0.6991   30.4355    0.0523 C   0  0  0  0  0  0  0  0  0  0  0  0
   -1.4057   31.3281    2.4378 C   0  0  0  0  0  0  0  0  0  0  0  0
   -0.9839   32.6143    2.4738 C   0  0  0  0  0  0  0  0  0  0  0  0
   -0.1877   33.2563    1.4355 C   0  0  0  0  0  0  0  0  0  0  0  0
    0.0927   34.5661    1.4346 C   0  0  0  0  0  0  0  0  0  0  0  0
   -0.3847   35.4632    2.5166 C   0  0  0  0  0  0  0  0  0  0  0  0
   -1.0323   34.6575    3.6085 C   0  0  0  0  0  0  0  0  0  0  0  0
   -1.2915   33.3875    3.5824 N   0  0  0  0  0  0  0  0  0  0  0  0
   -2.2814   30.5940    3.7726 S   0  0  0  0  0  0  0  0  0  0  0  0
  1  2  2  3
  2  3  1  0
  2  4  1  0
  4  5  2  3
  5  6  1  0
  6  7  2  0
  7  8  1  0
  7  9  1  0
  9 10  2  3
 10 11  1  0
 11 12  2  0
 12 13  1  0
 13 14  1  0
 14 15  2  0
  9 16  1  0
 16  5  1  0
 15 10  1  0
M  END
>  <Energy>  (213) 
-8.2387993955011609

>  <Energy_Delta>  (213) 
11.200463827558519

>  <std_smi>  (213) 
CC(=O)Nc1nc(C)c(-c2ccccn2)s1

>  <enum_smi>  (213) 
C=C(O)N=C1N=C(C)C(=C2C=CCC=N2)S1

>  <enum_code>  (213) 
T

>  <parent_uuid>  (213) 
38ce1dff-635b-49bf-aa41-0dda23e4ce8b

>  <o3da_score>  (213) 
77.407903948217466

>  <o3da_score_rel>  (213) 
0.30817211266727762

>  <o3da_align>  (213) 
0.3279224233934977

>  <RMSD>  (213) 
7.2354441399562306e-05

>  <CONVERGED>  (213) 
0

>  <ENERGY>  (213) 
-8.2387993956295755

$$$$
977ff2ec-33f0-44c8-bd73-30e006bbfb41
     RDKit          3D

 16 17  0  0  0  0  0  0  0  0999 V2000
   -0.2296   32.6775   -0.7428 C   0  0  0  0  0  0  0  0  0  0  0  0
    0.3814   32.7039    0.4425 C   0  0  0  0  0  0  0  0  0  0  0  0
    1.7057   32.3705    0.5247 O   0  0  0  0  0  0  0  0  0  0  0  0
   -0.2020   33.1623    1.5792 N   0  0  0  0  0  0  0  0  0  0  0  0
   -0.9660   32.3697    2.2586 C   0  0  0  0  0  0  0  0  0  0  0  0
   -1.5464   32.8644    3.3977 N   0  0  0  0  0  0  0  0  0  0  0  0
   -2.2663   31.9570    3.9927 C   0  0  0  0  0  0  0  0  0  0  0  0
   -2.9976   32.3544    5.2419 C   0  0  0  0  0  0  0  0  0  0  0  0
   -2.3312   30.5839    3.3950 C   0  0  0  0  0  0  0  0  0  0  0  0
   -2.9378   29.4320    3.7690 C   0  0  0  0  0  0  0  0  0  0  0  0
   -3.7062   29.2561    4.9950 C   0  0  0  0  0  0  0  0  0  0  0  0
   -4.3788   28.1342    5.2834 C   0  0  0  0  0  0  0  0  0  0  0  0
   -4.3799   26.9692    4.3641 C   0  0  0  0  0  0  0  0  0  0  0  0
   -3.4536   27.2204    3.2071 C   0  0  0  0  0  0  0  0  0  0  0  0
   -2.8140   28.3187    2.9522 N   0  0  0  0  0  0  0  0  0  0  0  0
   -1.3660   30.6956    1.9300 S   0  0  0  0  0  0  0  0  0  0  0  0
  1  2  2  3
  2  3  1  0
  2  4  1  0
  4  5  2  3
  5  6  1  0
  6  7  2  0
  7  8  1  0
  7  9  1  0
  9 10  2  3
 10 11  1  0
 11 12  2  0
 12 13  1  0
 13 14  1  0
 14 15  2  0
  9 16  1  0
 16  5  1  0
 15 10  1  0
M  END
>  <Energy>  (214) 
-8.2075510503645663

>  <Energy_Delta>  (214) 
11.231712172695113

>  <std_smi>  (214) 
CC(=O)Nc1nc(C)c(-c2ccccn2)s1

>  <enum_smi>  (214) 
C=C(O)N=C1N=C(C)C(=C2C=CCC=N2)S1

>  <enum_code>  (214) 
T

>  <parent_uuid>  (214) 
38ce1dff-635b-49bf-aa41-0dda23e4ce8b

>  <o3da_score>  (214) 
82.552103709854393

>  <o3da_score_rel>  (214) 
0.32865191934937893

>  <o3da_align>  (214) 
0.50503232415536137

>  <RMSD>  (214) 
6.0750438788183427e-05

>  <CONVERGED>  (214) 
0

>  <ENERGY>  (214) 
-8.2075510505258187

$$$$
977ff2ec-33f0-44c8-bd73-30e006bbfb41
     RDKit          3D

 16 17  0  0  0  0  0  0  0  0999 V2000
    1.3510   31.9544    1.5110 C   0  0  0  0  0  0  0  0  0  0  0  0
    0.1766   32.0444    0.8845 C   0  0  0  0  0  0  0  0  0  0  0  0
   -0.2287   33.2564    0.3930 O   0  0  0  0  0  0  0  0  0  0  0  0
   -0.6117   30.9782    0.5842 N   0  0  0  0  0  0  0  0  0  0  0  0
   -1.2733   30.4263    1.5477 C   0  0  0  0  0  0  0  0  0  0  0  0
   -1.2715   30.8332    2.8559 N   0  0  0  0  0  0  0  0  0  0  0  0
   -2.0695   30.0937    3.5721 C   0  0  0  0  0  0  0  0  0  0  0  0
   -2.1553   30.3801    5.0431 C   0  0  0  0  0  0  0  0  0  0  0  0
   -2.8386   28.9979    2.8941 C   0  0  0  0  0  0  0  0  0  0  0  0
   -3.7653   28.1088    3.3241 C   0  0  0  0  0  0  0  0  0  0  0  0
   -4.3101   28.0642    4.6753 C   0  0  0  0  0  0  0  0  0  0  0  0
   -5.1256   27.0916    5.1032 C   0  0  0  0  0  0  0  0  0  0  0  0
   -5.5470   25.9823    4.2116 C   0  0  0  0  0  0  0  0  0  0  0  0
   -5.0590   26.2297    2.8113 C   0  0  0  0  0  0  0  0  0  0  0  0
   -4.2687   27.1820    2.4247 N   0  0  0  0  0  0  0  0  0  0  0  0
   -2.2921   29.0416    1.2224 S   0  0  0  0  0  0  0  0  0  0  0  0
  1  2  2  3
  2  3  1  0
  2  4  1  0
  4  5  2  3
  5  6  1  0
  6  7  2  0
  7  8  1  0
  7  9  1  0
  9 10  2  3
 10 11  1  0
 11 12  2  0
 12 13  1  0
 13 14  1  0
 14 15  2  0
  9 16  1  0
 16  5  1  0
 15 10  1  0
M  END
>  <Energy>  (215) 
-5.3212770743339251

>  <Energy_Delta>  (215) 
14.117986148725755

>  <std_smi>  (215) 
CC(=O)Nc1nc(C)c(-c2ccccn2)s1

>  <enum_smi>  (215) 
C=C(O)N=C1N=C(C)C(=C2C=CCC=N2)S1

>  <enum_code>  (215) 
T

>  <parent_uuid>  (215) 
38ce1dff-635b-49bf-aa41-0dda23e4ce8b

>  <o3da_score>  (215) 
74.102018692316477

>  <o3da_score_rel>  (215) 
0.2950109031320326

>  <o3da_align>  (215) 
0.52177903117398883

>  <RMSD>  (215) 
0.23845831961804728

>  <CONVERGED>  (215) 
0

>  <ENERGY>  (215) 
-10.09706457001344

$$$$
764c025d-6f42-448d-882f-e1673dd794f4
     RDKit          3D

 16 17  0  0  0  0  0  0  0  0999 V2000
    0.4794   32.3603   -0.6702 C   0  0  0  0  0  0  0  0  0  0  0  0
   -0.1232   32.0437    0.4774 C   0  0  0  0  0  0  0  0  0  0  0  0
   -0.2163   33.0257    1.4362 O   0  0  0  0  0  0  0  0  0  0  0  0
   -0.6110   30.7805    0.6488 N   0  0  0  0  0  0  0  0  0  0  0  0
   -1.2222   30.4079    1.7174 C   0  0  0  0  0  0  0  0  0  0  0  0
   -1.4615   31.2161    2.8028 N   0  0  0  0  0  0  0  0  0  0  0  0
   -2.1533   30.5813    3.7020 C   0  0  0  0  0  0  0  0  0  0  0  0
   -2.5145   31.2463    4.9989 C   0  0  0  0  0  0  0  0  0  0  0  0
   -2.5967   29.1599    3.4351 C   0  0  1  0  0  0  0  0  0  0  0  0
   -4.1004   29.0209    3.4521 C   0  0  0  0  0  0  0  0  0  0  0  0
   -4.9199   29.6154    2.4898 C   0  0  0  0  0  0  0  0  0  0  0  0
   -6.3014   29.4717    2.5928 C   0  0  0  0  0  0  0  0  0  0  0  0
   -6.8357   28.7489    3.6507 C   0  0  0  0  0  0  0  0  0  0  0  0
   -5.9619   28.2006    4.5711 C   0  0  0  0  0  0  0  0  0  0  0  0
   -4.6178   28.3286    4.5002 N   0  0  0  0  0  0  0  0  0  0  0  0
   -1.8196   28.7693    1.8428 S   0  0  0  0  0  0  0  0  0  0  0  0
  1  2  2  3
  2  3  1  0
  2  4  1  0
  4  5  2  3
  5  6  1  0
  6  7  2  0
  7  8  1  0
  7  9  1  0
  9 10  1  6
 10 11  2  0
 11 12  1  0
 12 13  2  0
 13 14  1  0
 14 15  2  0
  9 16  1  0
 16  5  1  0
 15 10  1  0
M  END
>  <Energy>  (216) 
-34.956270766295738

>  <Energy_Delta>  (216) 
0

>  <std_smi>  (216) 
CC(=O)Nc1nc(C)c(-c2ccccn2)s1

>  <enum_smi>  (216) 
C=C(O)N=C1N=C(C)C(c2ccccn2)S1

>  <enum_code>  (216) 
T

>  <parent_uuid>  (216) 
38ce1dff-635b-49bf-aa41-0dda23e4ce8b

>  <o3da_score>  (216) 
93.571233499880918

>  <o3da_score_rel>  (216) 
0.37252067607762007

>  <o3da_align>  (216) 
0.37811108404564819

>  <RMSD>  (216) 
6.112635772364187e-05

>  <CONVERGED>  (216) 
0

>  <ENERGY>  (216) 
-34.956270766491919

$$$$
764c025d-6f42-448d-882f-e1673dd794f4
     RDKit          3D

 16 17  0  0  0  0  0  0  0  0999 V2000
   -5.9866   23.3150    4.1198 C   0  0  0  0  0  0  0  0  0  0  0  0
   -5.0098   24.1897    4.3673 C   0  0  0  0  0  0  0  0  0  0  0  0
   -3.7635   23.6833    4.6557 O   0  0  0  0  0  0  0  0  0  0  0  0
   -5.2824   25.5263    4.3199 N   0  0  0  0  0  0  0  0  0  0  0  0
   -4.4004   26.4265    4.5811 C   0  0  0  0  0  0  0  0  0  0  0  0
   -3.1028   26.1651    4.9470 N   0  0  0  0  0  0  0  0  0  0  0  0
   -2.4362   27.2735    5.0821 C   0  0  0  0  0  0  0  0  0  0  0  0
   -0.9973   27.2461    5.5139 C   0  0  0  0  0  0  0  0  0  0  0  0
   -3.1274   28.6010    4.8404 C   0  0  1  0  0  0  0  0  0  0  0  0
   -2.5386   29.4005    3.7014 C   0  0  0  0  0  0  0  0  0  0  0  0
   -2.7603   30.7769    3.6323 C   0  0  0  0  0  0  0  0  0  0  0  0
   -2.2344   31.4945    2.5612 C   0  0  0  0  0  0  0  0  0  0  0  0
   -1.5091   30.8262    1.5836 C   0  0  0  0  0  0  0  0  0  0  0  0
   -1.3383   29.4604    1.7181 C   0  0  0  0  0  0  0  0  0  0  0  0
   -1.8316   28.7399    2.7500 N   0  0  0  0  0  0  0  0  0  0  0  0
   -4.8465   28.1153    4.5101 S   0  0  0  0  0  0  0  0  0  0  0  0
  1  2  2  3
  2  3  1  0
  2  4  1  0
  4  5  2  3
  5  6  1  0
  6  7  2  0
  7  8  1  0
  7  9  1  0
  9 10  1  6
 10 11  2  0
 11 12  1  0
 12 13  2  0
 13 14  1  0
 14 15  2  0
  9 16  1  0
 16  5  1  0
 15 10  1  0
M  END
>  <Energy>  (217) 
-34.849114952794849

>  <Energy_Delta>  (217) 
0.10715581350088854

>  <std_smi>  (217) 
CC(=O)Nc1nc(C)c(-c2ccccn2)s1

>  <enum_smi>  (217) 
C=C(O)N=C1N=C(C)C(c2ccccn2)S1

>  <enum_code>  (217) 
T

>  <parent_uuid>  (217) 
38ce1dff-635b-49bf-aa41-0dda23e4ce8b

>  <o3da_score>  (217) 
96.179326285289449

>  <o3da_score_rel>  (217) 
0.38290387240146445

>  <o3da_align>  (217) 
0.49728423435507846

>  <RMSD>  (217) 
7.0583980402598283e-05

>  <CONVERGED>  (217) 
0

>  <ENERGY>  (217) 
-34.849114952949719

$$$$
764c025d-6f42-448d-882f-e1673dd794f4
     RDKit          3D

 16 17  0  0  0  0  0  0  0  0999 V2000
   -0.6254   30.8617    0.5053 C   0  0  0  0  0  0  0  0  0  0  0  0
   -1.2842   30.4403    1.5865 C   0  0  0  0  0  0  0  0  0  0  0  0
   -0.9454   31.0039    2.7949 O   0  0  0  0  0  0  0  0  0  0  0  0
   -2.2460   29.4813    1.4508 N   0  0  0  0  0  0  0  0  0  0  0  0
   -2.9456   29.0517    2.4420 C   0  0  0  0  0  0  0  0  0  0  0  0
   -2.8280   29.5023    3.7339 N   0  0  0  0  0  0  0  0  0  0  0  0
   -3.6203   28.8368    4.5217 C   0  0  0  0  0  0  0  0  0  0  0  0
   -3.6954   29.1739    5.9840 C   0  0  0  0  0  0  0  0  0  0  0  0
   -4.5010   27.7419    3.9524 C   0  0  2  0  0  0  0  0  0  0  0  0
   -4.2109   26.3686    4.5120 C   0  0  0  0  0  0  0  0  0  0  0  0
   -5.1791   25.3666    4.4288 C   0  0  0  0  0  0  0  0  0  0  0  0
   -4.8856   24.0987    4.9239 C   0  0  0  0  0  0  0  0  0  0  0  0
   -3.6370   23.8569    5.4813 C   0  0  0  0  0  0  0  0  0  0  0  0
   -2.7282   24.8986    5.5214 C   0  0  0  0  0  0  0  0  0  0  0  0
   -2.9882   26.1404    5.0545 N   0  0  0  0  0  0  0  0  0  0  0  0
   -4.1674   27.8316    2.1689 S   0  0  0  0  0  0  0  0  0  0  0  0
  1  2  2  3
  2  3  1  0
  2  4  1  0
  4  5  2  3
  5  6  1  0
  6  7  2  0
  7  8  1  0
  7  9  1  0
  9 10  1  1
 10 11  2  0
 11 12  1  0
 12 13  2  0
 13 14  1  0
 14 15  2  0
  9 16  1  0
 16  5  1  0
 15 10  1  0
M  END
>  <Energy>  (218) 
-34.849114952577921

>  <Energy_Delta>  (218) 
0.10715581371781724

>  <std_smi>  (218) 
CC(=O)Nc1nc(C)c(-c2ccccn2)s1

>  <enum_smi>  (218) 
C=C(O)N=C1N=C(C)C(c2ccccn2)S1

>  <enum_code>  (218) 
T

>  <parent_uuid>  (218) 
38ce1dff-635b-49bf-aa41-0dda23e4ce8b

>  <o3da_score>  (218) 
91.21519021936129

>  <o3da_score_rel>  (218) 
0.36314092545449267

>  <o3da_align>  (218) 
0.57186407317876231

>  <RMSD>  (218) 
7.2108909968696323e-05

>  <CONVERGED>  (218) 
0

>  <ENERGY>  (218) 
-34.84911495294903

$$$$
764c025d-6f42-448d-882f-e1673dd794f4
     RDKit          3D

 16 17  0  0  0  0  0  0  0  0999 V2000
   -0.5664   24.3341    5.7693 C   0  0  0  0  0  0  0  0  0  0  0  0
   -1.8794   24.2994    6.0031 C   0  0  0  0  0  0  0  0  0  0  0  0
   -2.3587   23.5044    7.0092 O   0  0  0  0  0  0  0  0  0  0  0  0
   -2.8094   24.9140    5.2245 N   0  0  0  0  0  0  0  0  0  0  0  0
   -2.9280   26.1962    5.3223 C   0  0  0  0  0  0  0  0  0  0  0  0
   -2.2053   27.0021    6.1617 N   0  0  0  0  0  0  0  0  0  0  0  0
   -2.5192   28.2500    5.9963 C   0  0  0  0  0  0  0  0  0  0  0  0
   -1.8775   29.3188    6.8323 C   0  0  0  0  0  0  0  0  0  0  0  0
   -3.5425   28.6239    4.9490 C   0  0  1  0  0  0  0  0  0  0  0  0
   -2.9724   29.5401    3.8923 C   0  0  0  0  0  0  0  0  0  0  0  0
   -1.9536   29.1387    3.0249 C   0  0  0  0  0  0  0  0  0  0  0  0
   -1.4561   30.0489    2.0955 C   0  0  0  0  0  0  0  0  0  0  0  0
   -1.9765   31.3351    2.0538 C   0  0  0  0  0  0  0  0  0  0  0  0
   -2.9757   31.6624    2.9517 C   0  0  0  0  0  0  0  0  0  0  0  0
   -3.4743   30.8023    3.8679 N   0  0  0  0  0  0  0  0  0  0  0  0
   -4.1077   27.0166    4.3200 S   0  0  0  0  0  0  0  0  0  0  0  0
  1  2  2  3
  2  3  1  0
  2  4  1  0
  4  5  2  3
  5  6  1  0
  6  7  2  0
  7  8  1  0
  7  9  1  0
  9 10  1  6
 10 11  2  0
 11 12  1  0
 12 13  2  0
 13 14  1  0
 14 15  2  0
  9 16  1  0
 16  5  1  0
 15 10  1  0
M  END
>  <Energy>  (219) 
-33.608472666010734

>  <Energy_Delta>  (219) 
1.3477981002850044

>  <std_smi>  (219) 
CC(=O)Nc1nc(C)c(-c2ccccn2)s1

>  <enum_smi>  (219) 
C=C(O)N=C1N=C(C)C(c2ccccn2)S1

>  <enum_code>  (219) 
T

>  <parent_uuid>  (219) 
38ce1dff-635b-49bf-aa41-0dda23e4ce8b

>  <o3da_score>  (219) 
58.946451926233543

>  <o3da_score_rel>  (219) 
0.23467438979486568

>  <o3da_align>  (219) 
0.58468089894623498

>  <RMSD>  (219) 
6.8695174117157316e-05

>  <CONVERGED>  (219) 
0

>  <ENERGY>  (219) 
-33.608472666255956

$$$$
764c025d-6f42-448d-882f-e1673dd794f4
     RDKit          3D

 16 17  0  0  0  0  0  0  0  0999 V2000
   -3.8356   23.5083    4.2725 C   0  0  0  0  0  0  0  0  0  0  0  0
   -3.4675   24.0079    5.4535 C   0  0  0  0  0  0  0  0  0  0  0  0
   -3.8300   23.3521    6.5993 O   0  0  0  0  0  0  0  0  0  0  0  0
   -2.6402   25.0762    5.6054 N   0  0  0  0  0  0  0  0  0  0  0  0
   -3.1213   26.2516    5.3718 C   0  0  0  0  0  0  0  0  0  0  0  0
   -4.4099   26.5256    4.9966 N   0  0  0  0  0  0  0  0  0  0  0  0
   -4.5765   27.7957    4.7909 C   0  0  0  0  0  0  0  0  0  0  0  0
   -5.9204   28.3389    4.4007 C   0  0  0  0  0  0  0  0  0  0  0  0
   -3.4008   28.7321    4.9477 C   0  0  2  0  0  0  0  0  0  0  0  0
   -3.0766   29.4641    3.6670 C   0  0  0  0  0  0  0  0  0  0  0  0
   -2.6380   28.8023    2.5177 C   0  0  0  0  0  0  0  0  0  0  0  0
   -2.3878   29.5406    1.3635 C   0  0  0  0  0  0  0  0  0  0  0  0
   -2.5847   30.9147    1.3762 C   0  0  0  0  0  0  0  0  0  0  0  0
   -3.0311   31.4974    2.5479 C   0  0  0  0  0  0  0  0  0  0  0  0
   -3.2874   30.8062    3.6812 N   0  0  0  0  0  0  0  0  0  0  0  0
   -2.0739   27.6453    5.5448 S   0  0  0  0  0  0  0  0  0  0  0  0
  1  2  2  3
  2  3  1  0
  2  4  1  0
  4  5  2  3
  5  6  1  0
  6  7  2  0
  7  8  1  0
  7  9  1  0
  9 10  1  6
 10 11  2  0
 11 12  1  0
 12 13  2  0
 13 14  1  0
 14 15  2  0
  9 16  1  0
 16  5  1  0
 15 10  1  0
M  END
>  <Energy>  (220) 
-33.608472665871425

>  <Energy_Delta>  (220) 
1.3477981004243134

>  <std_smi>  (220) 
CC(=O)Nc1nc(C)c(-c2ccccn2)s1

>  <enum_smi>  (220) 
C=C(O)N=C1N=C(C)C(c2ccccn2)S1

>  <enum_code>  (220) 
T

>  <parent_uuid>  (220) 
38ce1dff-635b-49bf-aa41-0dda23e4ce8b

>  <o3da_score>  (220) 
65.028626671865894

>  <o3da_score_rel>  (220) 
0.25888841117215228

>  <o3da_align>  (220) 
0.42757879487584771

>  <RMSD>  (220) 
6.1739824926606841e-05

>  <CONVERGED>  (220) 
0

>  <ENERGY>  (220) 
-33.608472666256986

$$$$
764c025d-6f42-448d-882f-e1673dd794f4
     RDKit          3D

 16 17  0  0  0  0  0  0  0  0999 V2000
   -4.3123   25.8064    4.8595 C   0  0  0  0  0  0  0  0  0  0  0  0
   -3.4756   26.7155    5.3630 C   0  0  0  0  0  0  0  0  0  0  0  0
   -3.7912   27.3307    6.5448 O   0  0  0  0  0  0  0  0  0  0  0  0
   -2.2479   26.9974    4.8504 N   0  0  0  0  0  0  0  0  0  0  0  0
   -2.1878   27.6371    3.7302 C   0  0  0  0  0  0  0  0  0  0  0  0
   -3.2623   28.0876    3.0095 N   0  0  0  0  0  0  0  0  0  0  0  0
   -2.8788   28.7343    1.9522 C   0  0  0  0  0  0  0  0  0  0  0  0
   -3.8855   29.2893    0.9870 C   0  0  0  0  0  0  0  0  0  0  0  0
   -1.4019   28.9257    1.6958 C   0  0  1  0  0  0  0  0  0  0  0  0
   -1.0135   30.3838    1.6326 C   0  0  0  0  0  0  0  0  0  0  0  0
   -1.1446   31.2401    2.7284 C   0  0  0  0  0  0  0  0  0  0  0  0
   -0.7939   32.5806    2.5877 C   0  0  0  0  0  0  0  0  0  0  0  0
   -0.3275   33.0390    1.3632 C   0  0  0  0  0  0  0  0  0  0  0  0
   -0.2351   32.1343    0.3217 C   0  0  0  0  0  0  0  0  0  0  0  0
   -0.5734   30.8295    0.4272 N   0  0  0  0  0  0  0  0  0  0  0  0
   -0.6160   28.0031    3.0483 S   0  0  0  0  0  0  0  0  0  0  0  0
  1  2  2  3
  2  3  1  0
  2  4  1  0
  4  5  2  3
  5  6  1  0
  6  7  2  0
  7  8  1  0
  7  9  1  0
  9 10  1  1
 10 11  2  0
 11 12  1  0
 12 13  2  0
 13 14  1  0
 14 15  2  0
  9 16  1  0
 16  5  1  0
 15 10  1  0
M  END
>  <Energy>  (221) 
-33.484501834271612

>  <Energy_Delta>  (221) 
1.4717689320241263

>  <std_smi>  (221) 
CC(=O)Nc1nc(C)c(-c2ccccn2)s1

>  <enum_smi>  (221) 
C=C(O)N=C1N=C(C)C(c2ccccn2)S1

>  <enum_code>  (221) 
T

>  <parent_uuid>  (221) 
38ce1dff-635b-49bf-aa41-0dda23e4ce8b

>  <o3da_score>  (221) 
69.382628252506123

>  <o3da_score_rel>  (221) 
0.2762223240831666

>  <o3da_align>  (221) 
0.53543639582653546

>  <RMSD>  (221) 
7.3861290821019288e-05

>  <CONVERGED>  (221) 
0

>  <ENERGY>  (221) 
-33.484501834646714

$$$$
764c025d-6f42-448d-882f-e1673dd794f4
     RDKit          3D

 16 17  0  0  0  0  0  0  0  0999 V2000
   -3.4860   23.5273    3.9723 C   0  0  0  0  0  0  0  0  0  0  0  0
   -4.3475   24.0635    4.8387 C   0  0  0  0  0  0  0  0  0  0  0  0
   -4.7741   23.3183    5.9053 O   0  0  0  0  0  0  0  0  0  0  0  0
   -4.9435   25.2751    4.6773 N   0  0  0  0  0  0  0  0  0  0  0  0
   -4.2168   26.3337    4.8211 C   0  0  0  0  0  0  0  0  0  0  0  0
   -2.8927   26.3516    5.1680 N   0  0  0  0  0  0  0  0  0  0  0  0
   -2.4252   27.5623    5.1503 C   0  0  0  0  0  0  0  0  0  0  0  0
   -0.9949   27.8311    5.5213 C   0  0  0  0  0  0  0  0  0  0  0  0
   -3.3450   28.7134    4.8004 C   0  0  1  0  0  0  0  0  0  0  0  0
   -2.9412   29.4689    3.5554 C   0  0  0  0  0  0  0  0  0  0  0  0
   -3.3922   30.7756    3.3609 C   0  0  0  0  0  0  0  0  0  0  0  0
   -3.0344   31.4495    2.1961 C   0  0  0  0  0  0  0  0  0  0  0  0
   -2.2449   30.8065    1.2520 C   0  0  0  0  0  0  0  0  0  0  0  0
   -1.8436   29.5090    1.5128 C   0  0  0  0  0  0  0  0  0  0  0  0
   -2.1711   28.8332    2.6366 N   0  0  0  0  0  0  0  0  0  0  0  0
   -4.9620   27.9050    4.6085 S   0  0  0  0  0  0  0  0  0  0  0  0
  1  2  2  3
  2  3  1  0
  2  4  1  0
  4  5  2  3
  5  6  1  0
  6  7  2  0
  7  8  1  0
  7  9  1  0
  9 10  1  6
 10 11  2  0
 11 12  1  0
 12 13  2  0
 13 14  1  0
 14 15  2  0
  9 16  1  0
 16  5  1  0
 15 10  1  0
M  END
>  <Energy>  (222) 
-33.113045785238711

>  <Energy_Delta>  (222) 
1.8432249810570269

>  <std_smi>  (222) 
CC(=O)Nc1nc(C)c(-c2ccccn2)s1

>  <enum_smi>  (222) 
C=C(O)N=C1N=C(C)C(c2ccccn2)S1

>  <enum_code>  (222) 
T

>  <parent_uuid>  (222) 
38ce1dff-635b-49bf-aa41-0dda23e4ce8b

>  <o3da_score>  (222) 
66.319278645803891

>  <o3da_score_rel>  (222) 
0.26402668420681208

>  <o3da_align>  (222) 
0.4546008331576869

>  <RMSD>  (222) 
7.1566887685816304e-05

>  <CONVERGED>  (222) 
0

>  <ENERGY>  (222) 
-33.113045785401582

$$$$
764c025d-6f42-448d-882f-e1673dd794f4
     RDKit          3D

 16 17  0  0  0  0  0  0  0  0999 V2000
   -0.1908   30.7413    3.3643 C   0  0  0  0  0  0  0  0  0  0  0  0
   -1.3485   31.1352    2.8308 C   0  0  0  0  0  0  0  0  0  0  0  0
   -1.5516   32.4663    2.5820 O   0  0  0  0  0  0  0  0  0  0  0  0
   -2.3179   30.2887    2.3914 N   0  0  0  0  0  0  0  0  0  0  0  0
   -3.0027   29.6388    3.2736 C   0  0  0  0  0  0  0  0  0  0  0  0
   -2.8709   29.7560    4.6310 N   0  0  0  0  0  0  0  0  0  0  0  0
   -3.6411   28.9118    5.2462 C   0  0  0  0  0  0  0  0  0  0  0  0
   -3.6834   28.8741    6.7471 C   0  0  0  0  0  0  0  0  0  0  0  0
   -4.5378   27.9946    4.4411 C   0  0  2  0  0  0  0  0  0  0  0  0
   -4.2405   26.5243    4.6250 C   0  0  0  0  0  0  0  0  0  0  0  0
   -5.2221   25.5767    4.3298 C   0  0  0  0  0  0  0  0  0  0  0  0
   -4.9246   24.2244    4.4780 C   0  0  0  0  0  0  0  0  0  0  0  0
   -3.6591   23.8482    4.9081 C   0  0  0  0  0  0  0  0  0  0  0  0
   -2.7379   24.8450    5.1735 C   0  0  0  0  0  0  0  0  0  0  0  0
   -3.0009   26.1645    5.0437 N   0  0  0  0  0  0  0  0  0  0  0  0
   -4.2503   28.5357    2.7295 S   0  0  0  0  0  0  0  0  0  0  0  0
  1  2  2  3
  2  3  1  0
  2  4  1  0
  4  5  2  3
  5  6  1  0
  6  7  2  0
  7  8  1  0
  7  9  1  0
  9 10  1  6
 10 11  2  0
 11 12  1  0
 12 13  2  0
 13 14  1  0
 14 15  2  0
  9 16  1  0
 16  5  1  0
 15 10  1  0
M  END
>  <Energy>  (223) 
-33.113045785191559

>  <Energy_Delta>  (223) 
1.8432249811041785

>  <std_smi>  (223) 
CC(=O)Nc1nc(C)c(-c2ccccn2)s1

>  <enum_smi>  (223) 
C=C(O)N=C1N=C(C)C(c2ccccn2)S1

>  <enum_code>  (223) 
T

>  <parent_uuid>  (223) 
38ce1dff-635b-49bf-aa41-0dda23e4ce8b

>  <o3da_score>  (223) 
74.012610846664202

>  <o3da_score_rel>  (223) 
0.29465495750789938

>  <o3da_align>  (223) 
0.31635291314254665

>  <RMSD>  (223) 
6.5677286765163768e-05

>  <CONVERGED>  (223) 
0

>  <ENERGY>  (223) 
-33.113045785401482

$$$$
764c025d-6f42-448d-882f-e1673dd794f4
     RDKit          3D

 16 17  0  0  0  0  0  0  0  0999 V2000
   -1.5287   24.7390    5.4613 C   0  0  0  0  0  0  0  0  0  0  0  0
   -2.7929   24.8684    5.0563 C   0  0  0  0  0  0  0  0  0  0  0  0
   -3.3763   23.8592    4.3401 O   0  0  0  0  0  0  0  0  0  0  0  0
   -3.5947   25.9030    5.4163 N   0  0  0  0  0  0  0  0  0  0  0  0
   -3.5385   27.0106    4.7526 C   0  0  0  0  0  0  0  0  0  0  0  0
   -4.3597   28.0315    5.1565 N   0  0  0  0  0  0  0  0  0  0  0  0
   -4.1665   29.1041    4.4532 C   0  0  0  0  0  0  0  0  0  0  0  0
   -4.9796   30.3411    4.7019 C   0  0  0  0  0  0  0  0  0  0  0  0
   -3.1100   29.1010    3.3754 C   0  0  1  0  0  0  0  0  0  0  0  0
   -2.0233   30.1178    3.6325 C   0  0  0  0  0  0  0  0  0  0  0  0
   -1.1927   30.0560    4.7540 C   0  0  0  0  0  0  0  0  0  0  0  0
   -0.2295   31.0445    4.9400 C   0  0  0  0  0  0  0  0  0  0  0  0
   -0.1177   32.0715    4.0127 C   0  0  0  0  0  0  0  0  0  0  0  0
   -0.9821   32.0710    2.9334 C   0  0  0  0  0  0  0  0  0  0  0  0
   -1.9298   31.1286    2.7298 N   0  0  0  0  0  0  0  0  0  0  0  0
   -2.5320   27.3811    3.3638 S   0  0  0  0  0  0  0  0  0  0  0  0
  1  2  2  3
  2  3  1  0
  2  4  1  0
  4  5  2  3
  5  6  1  0
  6  7  2  0
  7  8  1  0
  7  9  1  0
  9 10  1  1
 10 11  2  0
 11 12  1  0
 12 13  2  0
 13 14  1  0
 14 15  2  0
  9 16  1  0
 16  5  1  0
 15 10  1  0
M  END
>  <Energy>  (224) 
-31.287136820581132

>  <Energy_Delta>  (224) 
3.6691339457146057

>  <std_smi>  (224) 
CC(=O)Nc1nc(C)c(-c2ccccn2)s1

>  <enum_smi>  (224) 
C=C(O)N=C1N=C(C)C(c2ccccn2)S1

>  <enum_code>  (224) 
T

>  <parent_uuid>  (224) 
38ce1dff-635b-49bf-aa41-0dda23e4ce8b

>  <o3da_score>  (224) 
78.297089646421966

>  <o3da_score_rel>  (224) 
0.31171209012684714

>  <o3da_align>  (224) 
0.58351481678859818

>  <RMSD>  (224) 
5.2407636013433402e-05

>  <CONVERGED>  (224) 
0

>  <ENERGY>  (224) 
-31.287136820518391

$$$$
764c025d-6f42-448d-882f-e1673dd794f4
     RDKit          3D

 16 17  0  0  0  0  0  0  0  0999 V2000
   -1.0905   24.1321    5.4210 C   0  0  0  0  0  0  0  0  0  0  0  0
   -2.1486   24.4354    6.1743 C   0  0  0  0  0  0  0  0  0  0  0  0
   -2.1342   24.1307    7.5080 O   0  0  0  0  0  0  0  0  0  0  0  0
   -3.3106   24.9276    5.6739 N   0  0  0  0  0  0  0  0  0  0  0  0
   -3.4221   26.1972    5.4588 C   0  0  0  0  0  0  0  0  0  0  0  0
   -4.6100   26.6489    4.9447 N   0  0  0  0  0  0  0  0  0  0  0  0
   -4.5754   27.9255    4.7175 C   0  0  0  0  0  0  0  0  0  0  0  0
   -5.7800   28.6419    4.1803 C   0  0  0  0  0  0  0  0  0  0  0  0
   -3.3058   28.6920    4.9979 C   0  0  2  0  0  0  0  0  0  0  0  0
   -2.7345   29.3324    3.7553 C   0  0  0  0  0  0  0  0  0  0  0  0
   -2.3000   28.5817    2.6602 C   0  0  0  0  0  0  0  0  0  0  0  0
   -1.8094   29.2423    1.5366 C   0  0  0  0  0  0  0  0  0  0  0  0
   -1.7669   30.6298    1.5252 C   0  0  0  0  0  0  0  0  0  0  0  0
   -2.2239   31.3044    2.6423 C   0  0  0  0  0  0  0  0  0  0  0  0
   -2.7103   30.6906    3.7444 N   0  0  0  0  0  0  0  0  0  0  0  0
   -2.2263   27.4464    5.7565 S   0  0  0  0  0  0  0  0  0  0  0  0
  1  2  2  3
  2  3  1  0
  2  4  1  0
  4  5  2  3
  5  6  1  0
  6  7  2  0
  7  8  1  0
  7  9  1  0
  9 10  1  6
 10 11  2  0
 11 12  1  0
 12 13  2  0
 13 14  1  0
 14 15  2  0
  9 16  1  0
 16  5  1  0
 15 10  1  0
M  END
>  <Energy>  (225) 
-31.287136819713496

>  <Energy_Delta>  (225) 
3.6691339465822423

>  <std_smi>  (225) 
CC(=O)Nc1nc(C)c(-c2ccccn2)s1

>  <enum_smi>  (225) 
C=C(O)N=C1N=C(C)C(c2ccccn2)S1

>  <enum_code>  (225) 
T

>  <parent_uuid>  (225) 
38ce1dff-635b-49bf-aa41-0dda23e4ce8b

>  <o3da_score>  (225) 
81.352748208177516

>  <o3da_score_rel>  (225) 
0.32387711083579174

>  <o3da_align>  (225) 
0.49702415760073249

>  <RMSD>  (225) 
6.9738962694685486e-05

>  <CONVERGED>  (225) 
0

>  <ENERGY>  (225) 
-31.287136820699438

$$$$
764c025d-6f42-448d-882f-e1673dd794f4
     RDKit          3D

 16 17  0  0  0  0  0  0  0  0999 V2000
   -1.4761   24.2463    7.0232 C   0  0  0  0  0  0  0  0  0  0  0  0
   -1.7717   24.3725    5.7287 C   0  0  0  0  0  0  0  0  0  0  0  0
   -0.9007   23.8898    4.7903 O   0  0  0  0  0  0  0  0  0  0  0  0
   -2.9584   24.8439    5.2677 N   0  0  0  0  0  0  0  0  0  0  0  0
   -3.1599   26.1196    5.2140 C   0  0  0  0  0  0  0  0  0  0  0  0
   -4.3753   26.5466    4.7446 N   0  0  0  0  0  0  0  0  0  0  0  0
   -4.4425   27.8412    4.7028 C   0  0  0  0  0  0  0  0  0  0  0  0
   -5.7004   28.5286    4.2570 C   0  0  0  0  0  0  0  0  0  0  0  0
   -3.2402   28.6578    5.1095 C   0  0  2  0  0  0  0  0  0  0  0  0
   -2.7445   29.5484    3.9952 C   0  0  0  0  0  0  0  0  0  0  0  0
   -2.2383   29.0365    2.7981 C   0  0  0  0  0  0  0  0  0  0  0  0
   -1.8262   29.9196    1.8030 C   0  0  0  0  0  0  0  0  0  0  0  0
   -1.9320   31.2871    2.0176 C   0  0  0  0  0  0  0  0  0  0  0  0
   -2.4530   31.7183    3.2235 C   0  0  0  0  0  0  0  0  0  0  0  0
   -2.8659   30.8851    4.2049 N   0  0  0  0  0  0  0  0  0  0  0  0
   -2.0458   27.4034    5.6495 S   0  0  0  0  0  0  0  0  0  0  0  0
  1  2  2  3
  2  3  1  0
  2  4  1  0
  4  5  2  3
  5  6  1  0
  6  7  2  0
  7  8  1  0
  7  9  1  0
  9 10  1  6
 10 11  2  0
 11 12  1  0
 12 13  2  0
 13 14  1  0
 14 15  2  0
  9 16  1  0
 16  5  1  0
 15 10  1  0
M  END
>  <Energy>  (226) 
-31.112357926915525

>  <Energy_Delta>  (226) 
3.8439128393802129

>  <std_smi>  (226) 
CC(=O)Nc1nc(C)c(-c2ccccn2)s1

>  <enum_smi>  (226) 
C=C(O)N=C1N=C(C)C(c2ccccn2)S1

>  <enum_code>  (226) 
T

>  <parent_uuid>  (226) 
38ce1dff-635b-49bf-aa41-0dda23e4ce8b

>  <o3da_score>  (226) 
74.532566877803248

>  <o3da_score_rel>  (226) 
0.29672497801533237

>  <o3da_align>  (226) 
0.51371760230059971

>  <RMSD>  (226) 
6.6276934418301212e-05

>  <CONVERGED>  (226) 
0

>  <ENERGY>  (226) 
-31.112357928861883

$$$$
764c025d-6f42-448d-882f-e1673dd794f4
     RDKit          3D

 16 17  0  0  0  0  0  0  0  0999 V2000
   -1.8306   24.6174    7.6754 C   0  0  0  0  0  0  0  0  0  0  0  0
   -2.0154   24.6296    6.3546 C   0  0  0  0  0  0  0  0  0  0  0  0
   -1.0418   24.1307    5.5328 O   0  0  0  0  0  0  0  0  0  0  0  0
   -3.1789   25.0068    5.7662 N   0  0  0  0  0  0  0  0  0  0  0  0
   -3.3791   26.2566    5.5014 C   0  0  0  0  0  0  0  0  0  0  0  0
   -4.5694   26.5966    4.9150 N   0  0  0  0  0  0  0  0  0  0  0  0
   -4.6018   27.8566    4.6075 C   0  0  0  0  0  0  0  0  0  0  0  0
   -5.8250   28.4543    3.9734 C   0  0  0  0  0  0  0  0  0  0  0  0
   -3.4151   28.7351    4.9355 C   0  0  2  0  0  0  0  0  0  0  0  0
   -2.7549   29.3567    3.7267 C   0  0  0  0  0  0  0  0  0  0  0  0
   -1.9961   30.5192    3.8726 C   0  0  0  0  0  0  0  0  0  0  0  0
   -1.3707   31.0646    2.7544 C   0  0  0  0  0  0  0  0  0  0  0  0
   -1.5086   30.4380    1.5229 C   0  0  0  0  0  0  0  0  0  0  0  0
   -2.2695   29.2849    1.4599 C   0  0  0  0  0  0  0  0  0  0  0  0
   -2.8911   28.7362    2.5275 N   0  0  0  0  0  0  0  0  0  0  0  0
   -2.2967   27.6029    5.8097 S   0  0  0  0  0  0  0  0  0  0  0  0
  1  2  2  3
  2  3  1  0
  2  4  1  0
  4  5  2  3
  5  6  1  0
  6  7  2  0
  7  8  1  0
  7  9  1  0
  9 10  1  6
 10 11  2  0
 11 12  1  0
 12 13  2  0
 13 14  1  0
 14 15  2  0
  9 16  1  0
 16  5  1  0
 15 10  1  0
M  END
>  <Energy>  (227) 
-30.836688990744911

>  <Energy_Delta>  (227) 
4.1195817755508273

>  <std_smi>  (227) 
CC(=O)Nc1nc(C)c(-c2ccccn2)s1

>  <enum_smi>  (227) 
C=C(O)N=C1N=C(C)C(c2ccccn2)S1

>  <enum_code>  (227) 
T

>  <parent_uuid>  (227) 
38ce1dff-635b-49bf-aa41-0dda23e4ce8b

>  <o3da_score>  (227) 
84.613614710117702

>  <o3da_score_rel>  (227) 
0.33685909417047943

>  <o3da_align>  (227) 
0.49943139655123958

>  <RMSD>  (227) 
6.2763436227265284e-05

>  <CONVERGED>  (227) 
0

>  <ENERGY>  (227) 
-30.836688990967946

$$$$
764c025d-6f42-448d-882f-e1673dd794f4
     RDKit          3D

 16 17  0  0  0  0  0  0  0  0999 V2000
   -1.6130   23.1141    4.8835 C   0  0  0  0  0  0  0  0  0  0  0  0
   -1.5866   24.2939    5.5049 C   0  0  0  0  0  0  0  0  0  0  0  0
   -0.4093   24.7537    6.0293 O   0  0  0  0  0  0  0  0  0  0  0  0
   -2.6981   25.0308    5.7573 N   0  0  0  0  0  0  0  0  0  0  0  0
   -3.1299   25.8545    4.8588 C   0  0  0  0  0  0  0  0  0  0  0  0
   -4.2592   26.5731    5.1494 N   0  0  0  0  0  0  0  0  0  0  0  0
   -4.5252   27.4335    4.2154 C   0  0  0  0  0  0  0  0  0  0  0  0
   -5.7366   28.3157    4.3154 C   0  0  0  0  0  0  0  0  0  0  0  0
   -3.6326   27.5113    2.9968 C   0  0  1  0  0  0  0  0  0  0  0  0
   -2.9479   28.8464    2.8180 C   0  0  0  0  0  0  0  0  0  0  0  0
   -2.5021   29.2326    1.5528 C   0  0  0  0  0  0  0  0  0  0  0  0
   -1.8480   30.4533    1.4086 C   0  0  0  0  0  0  0  0  0  0  0  0
   -1.6468   31.2548    2.5246 C   0  0  0  0  0  0  0  0  0  0  0  0
   -2.1097   30.7997    3.7458 C   0  0  0  0  0  0  0  0  0  0  0  0
   -2.7516   29.6221    3.9141 N   0  0  0  0  0  0  0  0  0  0  0  0
   -2.4397   26.1713    3.2769 S   0  0  0  0  0  0  0  0  0  0  0  0
  1  2  2  3
  2  3  1  0
  2  4  1  0
  4  5  2  3
  5  6  1  0
  6  7  2  0
  7  8  1  0
  7  9  1  0
  9 10  1  1
 10 11  2  0
 11 12  1  0
 12 13  2  0
 13 14  1  0
 14 15  2  0
  9 16  1  0
 16  5  1  0
 15 10  1  0
M  END
>  <Energy>  (228) 
-30.836688990677921

>  <Energy_Delta>  (228) 
4.1195817756178172

>  <std_smi>  (228) 
CC(=O)Nc1nc(C)c(-c2ccccn2)s1

>  <enum_smi>  (228) 
C=C(O)N=C1N=C(C)C(c2ccccn2)S1

>  <enum_code>  (228) 
T

>  <parent_uuid>  (228) 
38ce1dff-635b-49bf-aa41-0dda23e4ce8b

>  <o3da_score>  (228) 
77.780207476910974

>  <o3da_score_rel>  (228) 
0.30965430710917485

>  <o3da_align>  (228) 
0.52116328171798443

>  <RMSD>  (228) 
6.7417253617100772e-05

>  <CONVERGED>  (228) 
0

>  <ENERGY>  (228) 
-30.836688990967115

$$$$
764c025d-6f42-448d-882f-e1673dd794f4
     RDKit          3D

 16 17  0  0  0  0  0  0  0  0999 V2000
   -0.4799   24.5488    5.4730 C   0  0  0  0  0  0  0  0  0  0  0  0
   -1.5962   24.6629    6.1941 C   0  0  0  0  0  0  0  0  0  0  0  0
   -1.5772   24.3328    7.5219 O   0  0  0  0  0  0  0  0  0  0  0  0
   -2.8066   24.9744    5.6645 N   0  0  0  0  0  0  0  0  0  0  0  0
   -3.0975   26.2116    5.4247 C   0  0  0  0  0  0  0  0  0  0  0  0
   -4.3290   26.4792    4.8877 N   0  0  0  0  0  0  0  0  0  0  0  0
   -4.4576   27.7394    4.6066 C   0  0  0  0  0  0  0  0  0  0  0  0
   -5.7389   28.2625    4.0231 C   0  0  0  0  0  0  0  0  0  0  0  0
   -3.3263   28.6930    4.9210 C   0  0  2  0  0  0  0  0  0  0  0  0
   -2.7393   29.3779    3.7087 C   0  0  0  0  0  0  0  0  0  0  0  0
   -2.0424   30.5779    3.8603 C   0  0  0  0  0  0  0  0  0  0  0  0
   -1.4832   31.1830    2.7377 C   0  0  0  0  0  0  0  0  0  0  0  0
   -1.6240   30.5778    1.4959 C   0  0  0  0  0  0  0  0  0  0  0  0
   -2.3214   29.3855    1.4275 C   0  0  0  0  0  0  0  0  0  0  0  0
   -2.8783   28.7790    2.4993 N   0  0  0  0  0  0  0  0  0  0  0  0
   -2.1130   27.6273    5.7514 S   0  0  0  0  0  0  0  0  0  0  0  0
  1  2  2  3
  2  3  1  0
  2  4  1  0
  4  5  2  3
  5  6  1  0
  6  7  2  0
  7  8  1  0
  7  9  1  0
  9 10  1  6
 10 11  2  0
 11 12  1  0
 12 13  2  0
 13 14  1  0
 14 15  2  0
  9 16  1  0
 16  5  1  0
 15 10  1  0
M  END
>  <Energy>  (229) 
-30.713769983620626

>  <Energy_Delta>  (229) 
4.242500782675112

>  <std_smi>  (229) 
CC(=O)Nc1nc(C)c(-c2ccccn2)s1

>  <enum_smi>  (229) 
C=C(O)N=C1N=C(C)C(c2ccccn2)S1

>  <enum_code>  (229) 
T

>  <parent_uuid>  (229) 
38ce1dff-635b-49bf-aa41-0dda23e4ce8b

>  <o3da_score>  (229) 
86.136551533274769

>  <o3da_score_rel>  (229) 
0.34292212693991164

>  <o3da_align>  (229) 
0.51346762095206189

>  <RMSD>  (229) 
6.1330601765002992e-05

>  <CONVERGED>  (229) 
0

>  <ENERGY>  (229) 
-30.713769984090899

$$$$
764c025d-6f42-448d-882f-e1673dd794f4
     RDKit          3D

 16 17  0  0  0  0  0  0  0  0999 V2000
   -0.3571   24.7691    5.7191 C   0  0  0  0  0  0  0  0  0  0  0  0
   -1.5927   24.2995    5.5398 C   0  0  0  0  0  0  0  0  0  0  0  0
   -1.7728   22.9805    5.2235 O   0  0  0  0  0  0  0  0  0  0  0  0
   -2.7157   25.0253    5.7735 N   0  0  0  0  0  0  0  0  0  0  0  0
   -3.1372   25.8537    4.8742 C   0  0  0  0  0  0  0  0  0  0  0  0
   -4.2729   26.5670    5.1538 N   0  0  0  0  0  0  0  0  0  0  0  0
   -4.5324   27.4272    4.2176 C   0  0  0  0  0  0  0  0  0  0  0  0
   -5.7457   28.3079    4.3080 C   0  0  0  0  0  0  0  0  0  0  0  0
   -3.6339   27.5017    3.0031 C   0  0  1  0  0  0  0  0  0  0  0  0
   -2.9395   28.8322    2.8277 C   0  0  0  0  0  0  0  0  0  0  0  0
   -2.4691   29.2078    1.5682 C   0  0  0  0  0  0  0  0  0  0  0  0
   -1.8066   30.4245    1.4276 C   0  0  0  0  0  0  0  0  0  0  0  0
   -1.6220   31.2327    2.5415 C   0  0  0  0  0  0  0  0  0  0  0  0
   -2.1094   30.7883    3.7570 C   0  0  0  0  0  0  0  0  0  0  0  0
   -2.7601   29.6151    3.9212 N   0  0  0  0  0  0  0  0  0  0  0  0
   -2.4522   26.1524    3.2862 S   0  0  0  0  0  0  0  0  0  0  0  0
  1  2  2  3
  2  3  1  0
  2  4  1  0
  4  5  2  3
  5  6  1  0
  6  7  2  0
  7  8  1  0
  7  9  1  0
  9 10  1  1
 10 11  2  0
 11 12  1  0
 12 13  2  0
 13 14  1  0
 14 15  2  0
  9 16  1  0
 16  5  1  0
 15 10  1  0
M  END
>  <Energy>  (230) 
-30.713769983176817

>  <Energy_Delta>  (230) 
4.2425007831189205

>  <std_smi>  (230) 
CC(=O)Nc1nc(C)c(-c2ccccn2)s1

>  <enum_smi>  (230) 
C=C(O)N=C1N=C(C)C(c2ccccn2)S1

>  <enum_code>  (230) 
T

>  <parent_uuid>  (230) 
38ce1dff-635b-49bf-aa41-0dda23e4ce8b

>  <o3da_score>  (230) 
77.349852633948259

>  <o3da_score_rel>  (230) 
0.30794100195055524

>  <o3da_align>  (230) 
0.51869162625873122

>  <RMSD>  (230) 
6.9503002968427101e-05

>  <CONVERGED>  (230) 
0

>  <ENERGY>  (230) 
-30.713769984089851

$$$$
764c025d-6f42-448d-882f-e1673dd794f4
     RDKit          3D

 16 17  0  0  0  0  0  0  0  0999 V2000
   -4.6149   25.7280    4.0656 C   0  0  0  0  0  0  0  0  0  0  0  0
   -4.9286   27.0243    4.0309 C   0  0  0  0  0  0  0  0  0  0  0  0
   -5.4396   27.6174    5.1543 O   0  0  0  0  0  0  0  0  0  0  0  0
   -4.8977   27.7928    2.9094 N   0  0  0  0  0  0  0  0  0  0  0  0
   -3.7454   28.1109    2.4206 C   0  0  0  0  0  0  0  0  0  0  0  0
   -2.5304   27.7616    2.9482 N   0  0  0  0  0  0  0  0  0  0  0  0
   -1.5567   28.2692    2.2573 C   0  0  0  0  0  0  0  0  0  0  0  0
   -0.1288   27.9892    2.6261 C   0  0  0  0  0  0  0  0  0  0  0  0
   -1.8709   29.1493    1.0697 C   0  0  2  0  0  0  0  0  0  0  0  0
   -1.3008   30.5400    1.2178 C   0  0  0  0  0  0  0  0  0  0  0  0
   -1.7076   31.4101    2.2321 C   0  0  0  0  0  0  0  0  0  0  0  0
   -1.1161   32.6676    2.3248 C   0  0  0  0  0  0  0  0  0  0  0  0
   -0.1328   33.0281    1.4136 C   0  0  0  0  0  0  0  0  0  0  0  0
    0.2246   32.1093    0.4441 C   0  0  0  0  0  0  0  0  0  0  0  0
   -0.3277   30.8803    0.3331 N   0  0  0  0  0  0  0  0  0  0  0  0
   -3.6835   29.0935    0.9714 S   0  0  0  0  0  0  0  0  0  0  0  0
  1  2  2  3
  2  3  1  0
  2  4  1  0
  4  5  2  3
  5  6  1  0
  6  7  2  0
  7  8  1  0
  7  9  1  0
  9 10  1  1
 10 11  2  0
 11 12  1  0
 12 13  2  0
 13 14  1  0
 14 15  2  0
  9 16  1  0
 16  5  1  0
 15 10  1  0
M  END
>  <Energy>  (231) 
-29.608714159433806

>  <Energy_Delta>  (231) 
5.3475566068619322

>  <std_smi>  (231) 
CC(=O)Nc1nc(C)c(-c2ccccn2)s1

>  <enum_smi>  (231) 
C=C(O)N=C1N=C(C)C(c2ccccn2)S1

>  <enum_code>  (231) 
T

>  <parent_uuid>  (231) 
38ce1dff-635b-49bf-aa41-0dda23e4ce8b

>  <o3da_score>  (231) 
79.72035452098865

>  <o3da_score_rel>  (231) 
0.31737831438701769

>  <o3da_align>  (231) 
0.37981430475610212

>  <RMSD>  (231) 
0.31538799278887197

>  <CONVERGED>  (231) 
0

>  <ENERGY>  (231) 
-33.484501834675193

$$$$
764c025d-6f42-448d-882f-e1673dd794f4
     RDKit          3D

 16 17  0  0  0  0  0  0  0  0999 V2000
   -4.5583   23.6624    6.1300 C   0  0  0  0  0  0  0  0  0  0  0  0
   -4.6611   24.1644    4.8983 C   0  0  0  0  0  0  0  0  0  0  0  0
   -4.3584   23.3725    3.8233 O   0  0  0  0  0  0  0  0  0  0  0  0
   -5.1660   25.3963    4.6233 N   0  0  0  0  0  0  0  0  0  0  0  0
   -4.3912   26.4152    4.7985 C   0  0  0  0  0  0  0  0  0  0  0  0
   -3.0935   26.3633    5.2305 N   0  0  0  0  0  0  0  0  0  0  0  0
   -2.5526   27.5429    5.2162 C   0  0  0  0  0  0  0  0  0  0  0  0
   -1.1352   27.7357    5.6741 C   0  0  0  0  0  0  0  0  0  0  0  0
   -3.3754   28.7370    4.7793 C   0  0  1  0  0  0  0  0  0  0  0  0
   -2.8358   29.4432    3.5572 C   0  0  0  0  0  0  0  0  0  0  0  0
   -3.1706   30.7781    3.3237 C   0  0  0  0  0  0  0  0  0  0  0  0
   -2.6877   31.4072    2.1791 C   0  0  0  0  0  0  0  0  0  0  0  0
   -1.8921   30.6930    1.2930 C   0  0  0  0  0  0  0  0  0  0  0  0
   -1.6111   29.3716    1.5890 C   0  0  0  0  0  0  0  0  0  0  0  0
   -2.0622   28.7374    2.6941 N   0  0  0  0  0  0  0  0  0  0  0  0
   -5.0174   28.0189    4.4762 S   0  0  0  0  0  0  0  0  0  0  0  0
  1  2  2  3
  2  3  1  0
  2  4  1  0
  4  5  2  3
  5  6  1  0
  6  7  2  0
  7  8  1  0
  7  9  1  0
  9 10  1  6
 10 11  2  0
 11 12  1  0
 12 13  2  0
 13 14  1  0
 14 15  2  0
  9 16  1  0
 16  5  1  0
 15 10  1  0
M  END
>  <Energy>  (232) 
-27.890192543568205

>  <Energy_Delta>  (232) 
7.0660782227275334

>  <std_smi>  (232) 
CC(=O)Nc1nc(C)c(-c2ccccn2)s1

>  <enum_smi>  (232) 
C=C(O)N=C1N=C(C)C(c2ccccn2)S1

>  <enum_code>  (232) 
T

>  <parent_uuid>  (232) 
38ce1dff-635b-49bf-aa41-0dda23e4ce8b

>  <o3da_score>  (232) 
75.570600375994132

>  <o3da_score_rel>  (232) 
0.30085754019361954

>  <o3da_align>  (232) 
0.53174525131871786

>  <RMSD>  (232) 
0.18984056797702861

>  <CONVERGED>  (232) 
0

>  <ENERGY>  (232) 
-33.167012481222891

$$$$
764c025d-6f42-448d-882f-e1673dd794f4
     RDKit          3D

 16 17  0  0  0  0  0  0  0  0999 V2000
   -7.3845   25.5901    4.9484 C   0  0  0  0  0  0  0  0  0  0  0  0
   -6.3236   25.3141    4.1886 C   0  0  0  0  0  0  0  0  0  0  0  0
   -6.5109   24.8876    2.9021 O   0  0  0  0  0  0  0  0  0  0  0  0
   -5.0466   25.3063    4.6493 N   0  0  0  0  0  0  0  0  0  0  0  0
   -4.4026   26.4214    4.7617 C   0  0  0  0  0  0  0  0  0  0  0  0
   -3.1172   26.3621    5.2348 N   0  0  0  0  0  0  0  0  0  0  0  0
   -2.5657   27.5356    5.2661 C   0  0  0  0  0  0  0  0  0  0  0  0
   -1.1695   27.7118    5.7887 C   0  0  0  0  0  0  0  0  0  0  0  0
   -3.3426   28.7314    4.7718 C   0  0  1  0  0  0  0  0  0  0  0  0
   -2.6541   29.4323    3.6249 C   0  0  0  0  0  0  0  0  0  0  0  0
   -2.4400   28.8136    2.3910 C   0  0  0  0  0  0  0  0  0  0  0  0
   -1.7718   29.5124    1.3886 C   0  0  0  0  0  0  0  0  0  0  0  0
   -1.3277   30.8040    1.6368 C   0  0  0  0  0  0  0  0  0  0  0  0
   -1.5670   31.3457    2.8862 C   0  0  0  0  0  0  0  0  0  0  0  0
   -2.2077   30.6898    3.8797 N   0  0  0  0  0  0  0  0  0  0  0  0
   -4.9642   28.0331    4.3541 S   0  0  0  0  0  0  0  0  0  0  0  0
  1  2  2  3
  2  3  1  0
  2  4  1  0
  4  5  2  3
  5  6  1  0
  6  7  2  0
  7  8  1  0
  7  9  1  0
  9 10  1  6
 10 11  2  0
 11 12  1  0
 12 13  2  0
 13 14  1  0
 14 15  2  0
  9 16  1  0
 16  5  1  0
 15 10  1  0
M  END
>  <Energy>  (233) 
-27.597154923885512

>  <Energy_Delta>  (233) 
7.3591158424102261

>  <std_smi>  (233) 
CC(=O)Nc1nc(C)c(-c2ccccn2)s1

>  <enum_smi>  (233) 
C=C(O)N=C1N=C(C)C(c2ccccn2)S1

>  <enum_code>  (233) 
T

>  <parent_uuid>  (233) 
38ce1dff-635b-49bf-aa41-0dda23e4ce8b

>  <o3da_score>  (233) 
76.544255230630057

>  <o3da_score_rel>  (233) 
0.30473380163796282

>  <o3da_align>  (233) 
0.36050274209239147

>  <RMSD>  (233) 
0.28928952999879398

>  <CONVERGED>  (233) 
0

>  <ENERGY>  (233) 
-31.11235792885493

$$$$
88eb6305-ed5c-4dbd-99ef-09f44859c3a5
     RDKit          3D

 16 17  0  0  0  0  0  0  0  0999 V2000
   -2.9098   26.7755    6.5342 C   0  0  0  0  0  0  0  0  0  0  0  0
   -3.1570   26.2543    5.3321 C   0  0  0  0  0  0  0  0  0  0  0  0
   -3.0748   24.9028    5.1479 O   0  0  0  0  0  0  0  0  0  0  0  0
   -3.5596   26.9942    4.2674 N   0  0  0  0  0  0  0  0  0  0  0  0
   -2.6275   27.5031    3.5355 C   0  0  0  0  0  0  0  0  0  0  0  0
   -1.2666   27.4272    3.6164 N   0  0  0  0  0  0  0  0  0  0  0  0
   -0.4927   28.0632    2.6776 C   0  0  0  0  0  0  0  0  0  0  0  0
    0.8457   28.0035    2.6249 C   0  0  0  0  0  0  0  0  0  0  0  0
   -1.3469   28.8362    1.6704 C   0  0  2  0  0  0  0  0  0  0  0  0
   -1.0568   30.3266    1.6158 C   0  0  0  0  0  0  0  0  0  0  0  0
   -1.2230   31.1504    2.7323 C   0  0  0  0  0  0  0  0  0  0  0  0
   -0.9274   32.5071    2.6262 C   0  0  0  0  0  0  0  0  0  0  0  0
   -0.4704   33.0123    1.4165 C   0  0  0  0  0  0  0  0  0  0  0  0
   -0.3233   32.1349    0.3575 C   0  0  0  0  0  0  0  0  0  0  0  0
   -0.5975   30.8136    0.4308 N   0  0  0  0  0  0  0  0  0  0  0  0
   -3.1044   28.4801    2.1464 S   0  0  0  0  0  0  0  0  0  0  0  0
  1  2  2  3
  2  3  1  0
  2  4  1  0
  4  5  2  3
  5  6  1  0
  6  7  1  0
  7  8  2  3
  7  9  1  0
  9 10  1  1
 10 11  2  0
 11 12  1  0
 12 13  2  0
 13 14  1  0
 14 15  2  0
  9 16  1  0
 16  5  1  0
 15 10  1  0
M  END
>  <Energy>  (234) 
-23.4929234362565

>  <Energy_Delta>  (234) 
0

>  <std_smi>  (234) 
CC(=O)Nc1nc(C)c(-c2ccccn2)s1

>  <enum_smi>  (234) 
C=C(O)N=C1NC(=C)C(c2ccccn2)S1

>  <enum_code>  (234) 
T

>  <parent_uuid>  (234) 
38ce1dff-635b-49bf-aa41-0dda23e4ce8b

>  <o3da_score>  (234) 
77.040448512833379

>  <o3da_score_rel>  (234) 
0.3067092191892532

>  <o3da_align>  (234) 
0.5041705755121284

>  <RMSD>  (234) 
7.7785865536226107e-05

>  <CONVERGED>  (234) 
0

>  <ENERGY>  (234) 
-23.492923436346899

$$$$
88eb6305-ed5c-4dbd-99ef-09f44859c3a5
     RDKit          3D

 16 17  0  0  0  0  0  0  0  0999 V2000
   -5.0829   27.4455    5.4515 C   0  0  0  0  0  0  0  0  0  0  0  0
   -4.3587   26.6561    4.6578 C   0  0  0  0  0  0  0  0  0  0  0  0
   -4.8898   25.4839    4.1983 O   0  0  0  0  0  0  0  0  0  0  0  0
   -3.0698   26.9180    4.3214 N   0  0  0  0  0  0  0  0  0  0  0  0
   -2.8860   27.6509    3.2761 C   0  0  0  0  0  0  0  0  0  0  0  0
   -3.7658   28.2221    2.4019 N   0  0  0  0  0  0  0  0  0  0  0  0
   -3.2926   28.9548    1.3418 C   0  0  0  0  0  0  0  0  0  0  0  0
   -4.0615   29.5050    0.3910 C   0  0  0  0  0  0  0  0  0  0  0  0
   -1.7654   29.0499    1.3570 C   0  0  1  0  0  0  0  0  0  0  0  0
   -1.2262   30.4687    1.4241 C   0  0  0  0  0  0  0  0  0  0  0  0
   -1.5160   31.3165    2.4966 C   0  0  0  0  0  0  0  0  0  0  0  0
   -1.0052   32.6120    2.4964 C   0  0  0  0  0  0  0  0  0  0  0  0
   -0.2231   33.0359    1.4306 C   0  0  0  0  0  0  0  0  0  0  0  0
    0.0147   32.1434    0.4010 C   0  0  0  0  0  0  0  0  0  0  0  0
   -0.4703   30.8823    0.3706 N   0  0  0  0  0  0  0  0  0  0  0  0
   -1.2273   28.0250    2.8069 S   0  0  0  0  0  0  0  0  0  0  0  0
  1  2  2  3
  2  3  1  0
  2  4  1  0
  4  5  2  3
  5  6  1  0
  6  7  1  0
  7  8  2  3
  7  9  1  0
  9 10  1  1
 10 11  2  0
 11 12  1  0
 12 13  2  0
 13 14  1  0
 14 15  2  0
  9 16  1  0
 16  5  1  0
 15 10  1  0
M  END
>  <Energy>  (235) 
-23.49292343563414

>  <Energy_Delta>  (235) 
6.2236082953859295e-10

>  <std_smi>  (235) 
CC(=O)Nc1nc(C)c(-c2ccccn2)s1

>  <enum_smi>  (235) 
C=C(O)N=C1NC(=C)C(c2ccccn2)S1

>  <enum_code>  (235) 
T

>  <parent_uuid>  (235) 
38ce1dff-635b-49bf-aa41-0dda23e4ce8b

>  <o3da_score>  (235) 
83.726752243052815

>  <o3da_score_rel>  (235) 
0.33332836583163267

>  <o3da_align>  (235) 
0.45596875901699441

>  <RMSD>  (235) 
5.7045350756600116e-05

>  <CONVERGED>  (235) 
0

>  <ENERGY>  (235) 
-23.492923436186182

$$$$
88eb6305-ed5c-4dbd-99ef-09f44859c3a5
     RDKit          3D

 16 17  0  0  0  0  0  0  0  0999 V2000
   -4.7497   25.6008    4.1538 C   0  0  0  0  0  0  0  0  0  0  0  0
   -4.8378   26.9285    4.2397 C   0  0  0  0  0  0  0  0  0  0  0  0
   -5.0316   27.5183    5.4569 O   0  0  0  0  0  0  0  0  0  0  0  0
   -4.8188   27.7513    3.1599 N   0  0  0  0  0  0  0  0  0  0  0  0
   -3.6578   28.0940    2.7147 C   0  0  0  0  0  0  0  0  0  0  0  0
   -2.3960   27.7962    3.1431 N   0  0  0  0  0  0  0  0  0  0  0  0
   -1.3109   28.2917    2.4633 C   0  0  0  0  0  0  0  0  0  0  0  0
   -0.0330   28.0270    2.7715 C   0  0  0  0  0  0  0  0  0  0  0  0
   -1.7356   29.1730    1.2863 C   0  0  2  0  0  0  0  0  0  0  0  0
   -1.1785   30.5859    1.3236 C   0  0  0  0  0  0  0  0  0  0  0  0
   -1.4561   31.4586    2.3793 C   0  0  0  0  0  0  0  0  0  0  0  0
   -0.9059   32.7379    2.3664 C   0  0  0  0  0  0  0  0  0  0  0  0
   -0.0912   33.1186    1.3088 C   0  0  0  0  0  0  0  0  0  0  0  0
    0.1446   32.1983    0.3034 C   0  0  0  0  0  0  0  0  0  0  0  0
   -0.3709   30.9492    0.2903 N   0  0  0  0  0  0  0  0  0  0  0  0
   -3.5908   29.1511    1.3042 S   0  0  0  0  0  0  0  0  0  0  0  0
  1  2  2  3
  2  3  1  0
  2  4  1  0
  4  5  2  3
  5  6  1  0
  6  7  1  0
  7  8  2  3
  7  9  1  0
  9 10  1  1
 10 11  2  0
 11 12  1  0
 12 13  2  0
 13 14  1  0
 14 15  2  0
  9 16  1  0
 16  5  1  0
 15 10  1  0
M  END
>  <Energy>  (236) 
-23.32978016775041

>  <Energy_Delta>  (236) 
0.16314326850609007

>  <std_smi>  (236) 
CC(=O)Nc1nc(C)c(-c2ccccn2)s1

>  <enum_smi>  (236) 
C=C(O)N=C1NC(=C)C(c2ccccn2)S1

>  <enum_code>  (236) 
T

>  <parent_uuid>  (236) 
38ce1dff-635b-49bf-aa41-0dda23e4ce8b

>  <o3da_score>  (236) 
82.177250657065301

>  <o3da_score_rel>  (236) 
0.32715957488162184

>  <o3da_align>  (236) 
0.50026230833317986

>  <RMSD>  (236) 
7.0685379188537305e-05

>  <CONVERGED>  (236) 
0

>  <ENERGY>  (236) 
-23.329780167886476

$$$$
88eb6305-ed5c-4dbd-99ef-09f44859c3a5
     RDKit          3D

 16 17  0  0  0  0  0  0  0  0999 V2000
   -5.1125   25.6113    4.1325 C   0  0  0  0  0  0  0  0  0  0  0  0
   -4.4572   26.6393    4.6727 C   0  0  0  0  0  0  0  0  0  0  0  0
   -5.0650   27.4052    5.6273 O   0  0  0  0  0  0  0  0  0  0  0  0
   -3.1658   26.9403    4.3811 N   0  0  0  0  0  0  0  0  0  0  0  0
   -2.9638   27.6672    3.3350 C   0  0  0  0  0  0  0  0  0  0  0  0
   -3.8268   28.2308    2.4395 N   0  0  0  0  0  0  0  0  0  0  0  0
   -3.3348   28.9609    1.3860 C   0  0  0  0  0  0  0  0  0  0  0  0
   -4.0889   29.5193    0.4280 C   0  0  0  0  0  0  0  0  0  0  0  0
   -1.8071   29.0450    1.4212 C   0  0  1  0  0  0  0  0  0  0  0  0
   -1.2540   30.4598    1.4457 C   0  0  0  0  0  0  0  0  0  0  0  0
   -1.5595   31.3514    2.4776 C   0  0  0  0  0  0  0  0  0  0  0  0
   -1.0347   32.6408    2.4397 C   0  0  0  0  0  0  0  0  0  0  0  0
   -0.2228   33.0150    1.3776 C   0  0  0  0  0  0  0  0  0  0  0  0
    0.0294   32.0809    0.3892 C   0  0  0  0  0  0  0  0  0  0  0  0
   -0.4688   30.8246    0.3958 N   0  0  0  0  0  0  0  0  0  0  0  0
   -1.2984   28.0683    2.9145 S   0  0  0  0  0  0  0  0  0  0  0  0
  1  2  2  3
  2  3  1  0
  2  4  1  0
  4  5  2  3
  5  6  1  0
  6  7  1  0
  7  8  2  3
  7  9  1  0
  9 10  1  1
 10 11  2  0
 11 12  1  0
 12 13  2  0
 13 14  1  0
 14 15  2  0
  9 16  1  0
 16  5  1  0
 15 10  1  0
M  END
>  <Energy>  (237) 
-23.329780166610796

>  <Energy_Delta>  (237) 
0.16314326964570469

>  <std_smi>  (237) 
CC(=O)Nc1nc(C)c(-c2ccccn2)s1

>  <enum_smi>  (237) 
C=C(O)N=C1NC(=C)C(c2ccccn2)S1

>  <enum_code>  (237) 
T

>  <parent_uuid>  (237) 
38ce1dff-635b-49bf-aa41-0dda23e4ce8b

>  <o3da_score>  (237) 
87.141127908603238

>  <o3da_score_rel>  (237) 
0.34692149145090151

>  <o3da_align>  (237) 
0.58763719875513232

>  <RMSD>  (237) 
5.7996023836395299e-05

>  <CONVERGED>  (237) 
0

>  <ENERGY>  (237) 
-23.329780167869345

$$$$
88eb6305-ed5c-4dbd-99ef-09f44859c3a5
     RDKit          3D

 16 17  0  0  0  0  0  0  0  0999 V2000
   -3.6404   23.3581    3.5692 C   0  0  0  0  0  0  0  0  0  0  0  0
   -3.6658   23.8609    4.8037 C   0  0  0  0  0  0  0  0  0  0  0  0
   -4.5106   23.3285    5.7366 O   0  0  0  0  0  0  0  0  0  0  0  0
   -2.8371   24.8514    5.2224 N   0  0  0  0  0  0  0  0  0  0  0  0
   -3.2445   26.0604    5.0328 C   0  0  0  0  0  0  0  0  0  0  0  0
   -4.3943   26.5558    4.4881 N   0  0  0  0  0  0  0  0  0  0  0  0
   -4.5858   27.9136    4.4217 C   0  0  0  0  0  0  0  0  0  0  0  0
   -5.6992   28.5057    3.9661 C   0  0  0  0  0  0  0  0  0  0  0  0
   -3.3765   28.6820    4.9591 C   0  0  2  0  0  0  0  0  0  0  0  0
   -2.7356   29.6245    3.9544 C   0  0  0  0  0  0  0  0  0  0  0  0
   -2.1932   29.1614    2.7525 C   0  0  0  0  0  0  0  0  0  0  0  0
   -1.6316   30.0745    1.8637 C   0  0  0  0  0  0  0  0  0  0  0  0
   -1.6254   31.4246    2.1869 C   0  0  0  0  0  0  0  0  0  0  0  0
   -2.1875   31.8093    3.3908 C   0  0  0  0  0  0  0  0  0  0  0  0
   -2.7436   30.9480    4.2714 N   0  0  0  0  0  0  0  0  0  0  0  0
   -2.1956   27.3799    5.5525 S   0  0  0  0  0  0  0  0  0  0  0  0
  1  2  2  3
  2  3  1  0
  2  4  1  0
  4  5  2  3
  5  6  1  0
  6  7  1  0
  7  8  2  3
  7  9  1  0
  9 10  1  6
 10 11  2  0
 11 12  1  0
 12 13  2  0
 13 14  1  0
 14 15  2  0
  9 16  1  0
 16  5  1  0
 15 10  1  0
M  END
>  <Energy>  (238) 
-21.672499078077522

>  <Energy_Delta>  (238) 
1.820424358178979

>  <std_smi>  (238) 
CC(=O)Nc1nc(C)c(-c2ccccn2)s1

>  <enum_smi>  (238) 
C=C(O)N=C1NC(=C)C(c2ccccn2)S1

>  <enum_code>  (238) 
T

>  <parent_uuid>  (238) 
38ce1dff-635b-49bf-aa41-0dda23e4ce8b

>  <o3da_score>  (238) 
91.640098474743127

>  <o3da_score_rel>  (238) 
0.36483254695658612

>  <o3da_align>  (238) 
0.46881015050307839

>  <RMSD>  (238) 
0.58336479347544545

>  <CONVERGED>  (238) 
0

>  <ENERGY>  (238) 
-23.492923436347894

$$$$
88eb6305-ed5c-4dbd-99ef-09f44859c3a5
     RDKit          3D

 16 17  0  0  0  0  0  0  0  0999 V2000
   -3.9482   25.6305    4.1741 C   0  0  0  0  0  0  0  0  0  0  0  0
   -4.2784   26.6348    4.9865 C   0  0  0  0  0  0  0  0  0  0  0  0
   -4.4690   26.3962    6.3185 O   0  0  0  0  0  0  0  0  0  0  0  0
   -4.5076   27.9004    4.5521 N   0  0  0  0  0  0  0  0  0  0  0  0
   -3.4814   28.6784    4.4804 C   0  0  0  0  0  0  0  0  0  0  0  0
   -2.1653   28.4748    4.7820 N   0  0  0  0  0  0  0  0  0  0  0  0
   -1.2653   29.4997    4.6265 C   0  0  0  0  0  0  0  0  0  0  0  0
    0.0340   29.4297    4.9502 C   0  0  0  0  0  0  0  0  0  0  0  0
   -1.9307   30.7551    4.0583 C   0  0  1  0  0  0  0  0  0  0  0  0
   -1.3441   31.2341    2.7412 C   0  0  0  0  0  0  0  0  0  0  0  0
   -1.3561   30.4338    1.5955 C   0  0  0  0  0  0  0  0  0  0  0  0
   -0.7905   30.9210    0.4200 C   0  0  0  0  0  0  0  0  0  0  0  0
   -0.2234   32.1881    0.4108 C   0  0  0  0  0  0  0  0  0  0  0  0
   -0.2417   32.9191    1.5850 C   0  0  0  0  0  0  0  0  0  0  0  0
   -0.7788   32.4721    2.7418 N   0  0  0  0  0  0  0  0  0  0  0  0
   -3.7305   30.3294    3.9118 S   0  0  0  0  0  0  0  0  0  0  0  0
  1  2  2  3
  2  3  1  0
  2  4  1  0
  4  5  2  3
  5  6  1  0
  6  7  1  0
  7  8  2  3
  7  9  1  0
  9 10  1  6
 10 11  2  0
 11 12  1  0
 12 13  2  0
 13 14  1  0
 14 15  2  0
  9 16  1  0
 16  5  1  0
 15 10  1  0
M  END
>  <Energy>  (239) 
-21.672499077865076

>  <Energy_Delta>  (239) 
1.8204243583914241

>  <std_smi>  (239) 
CC(=O)Nc1nc(C)c(-c2ccccn2)s1

>  <enum_smi>  (239) 
C=C(O)N=C1NC(=C)C(c2ccccn2)S1

>  <enum_code>  (239) 
T

>  <parent_uuid>  (239) 
38ce1dff-635b-49bf-aa41-0dda23e4ce8b

>  <o3da_score>  (239) 
91.127784716329202

>  <o3da_score_rel>  (239) 
0.36279295144726259

>  <o3da_align>  (239) 
0.442488061955497

>  <RMSD>  (239) 
0.58335900039190436

>  <CONVERGED>  (239) 
0

>  <ENERGY>  (239) 
-23.492923436344295

$$$$
88eb6305-ed5c-4dbd-99ef-09f44859c3a5
     RDKit          3D

 16 17  0  0  0  0  0  0  0  0999 V2000
   -5.0086   23.4263    5.3961 C   0  0  0  0  0  0  0  0  0  0  0  0
   -4.8208   24.2231    4.3441 C   0  0  0  0  0  0  0  0  0  0  0  0
   -4.2336   23.7291    3.2127 O   0  0  0  0  0  0  0  0  0  0  0  0
   -5.2433   25.5127    4.3082 N   0  0  0  0  0  0  0  0  0  0  0  0
   -4.3784   26.4078    4.6480 C   0  0  0  0  0  0  0  0  0  0  0  0
   -3.0768   26.3063    5.0448 N   0  0  0  0  0  0  0  0  0  0  0  0
   -2.3480   27.4461    5.2801 C   0  0  0  0  0  0  0  0  0  0  0  0
   -1.0683   27.4598    5.6816 C   0  0  0  0  0  0  0  0  0  0  0  0
   -3.1808   28.7086    5.0459 C   0  0  1  0  0  0  0  0  0  0  0  0
   -2.6708   29.6406    3.9551 C   0  0  0  0  0  0  0  0  0  0  0  0
   -2.9547   31.0063    4.0346 C   0  0  0  0  0  0  0  0  0  0  0  0
   -2.5109   31.8529    3.0219 C   0  0  0  0  0  0  0  0  0  0  0  0
   -1.8029   31.3223    1.9519 C   0  0  0  0  0  0  0  0  0  0  0  0
   -1.5679   29.9592    1.9371 C   0  0  0  0  0  0  0  0  0  0  0  0
   -1.9829   29.1142    2.9059 N   0  0  0  0  0  0  0  0  0  0  0  0
   -4.8818   28.0975    4.6256 S   0  0  0  0  0  0  0  0  0  0  0  0
  1  2  2  3
  2  3  1  0
  2  4  1  0
  4  5  2  3
  5  6  1  0
  6  7  1  0
  7  8  2  3
  7  9  1  0
  9 10  1  6
 10 11  2  0
 11 12  1  0
 12 13  2  0
 13 14  1  0
 14 15  2  0
  9 16  1  0
 16  5  1  0
 15 10  1  0
M  END
>  <Energy>  (240) 
-21.581320758779761

>  <Energy_Delta>  (240) 
1.9116026774767398

>  <std_smi>  (240) 
CC(=O)Nc1nc(C)c(-c2ccccn2)s1

>  <enum_smi>  (240) 
C=C(O)N=C1NC(=C)C(c2ccccn2)S1

>  <enum_code>  (240) 
T

>  <parent_uuid>  (240) 
38ce1dff-635b-49bf-aa41-0dda23e4ce8b

>  <o3da_score>  (240) 
76.0017735078398

>  <o3da_score_rel>  (240) 
0.3025741030791762

>  <o3da_align>  (240) 
0.52942005745987963

>  <RMSD>  (240) 
7.4205269253918029e-05

>  <CONVERGED>  (240) 
0

>  <ENERGY>  (240) 
-21.581320758840491

$$$$
88eb6305-ed5c-4dbd-99ef-09f44859c3a5
     RDKit          3D

 16 17  0  0  0  0  0  0  0  0999 V2000
   -4.1920   23.6598    3.2930 C   0  0  0  0  0  0  0  0  0  0  0  0
   -4.8301   24.2244    4.3189 C   0  0  0  0  0  0  0  0  0  0  0  0
   -5.1583   23.4720    5.4114 O   0  0  0  0  0  0  0  0  0  0  0  0
   -5.2511   25.5153    4.3208 N   0  0  0  0  0  0  0  0  0  0  0  0
   -4.3778   26.4080    4.6452 C   0  0  0  0  0  0  0  0  0  0  0  0
   -3.0727   26.3062    5.0305 N   0  0  0  0  0  0  0  0  0  0  0  0
   -2.3456   27.4452    5.2753 C   0  0  0  0  0  0  0  0  0  0  0  0
   -1.0692   27.4576    5.6873 C   0  0  0  0  0  0  0  0  0  0  0  0
   -3.1777   28.7087    5.0447 C   0  0  1  0  0  0  0  0  0  0  0  0
   -2.6787   29.6380    3.9461 C   0  0  0  0  0  0  0  0  0  0  0  0
   -3.0150   30.9935    3.9930 C   0  0  0  0  0  0  0  0  0  0  0  0
   -2.5809   31.8377    2.9740 C   0  0  0  0  0  0  0  0  0  0  0  0
   -1.8299   31.3147    1.9300 C   0  0  0  0  0  0  0  0  0  0  0  0
   -1.5429   29.9617    1.9472 C   0  0  0  0  0  0  0  0  0  0  0  0
   -1.9464   29.1199    2.9236 N   0  0  0  0  0  0  0  0  0  0  0  0
   -4.8847   28.0975    4.6477 S   0  0  0  0  0  0  0  0  0  0  0  0
  1  2  2  3
  2  3  1  0
  2  4  1  0
  4  5  2  3
  5  6  1  0
  6  7  1  0
  7  8  2  3
  7  9  1  0
  9 10  1  6
 10 11  2  0
 11 12  1  0
 12 13  2  0
 13 14  1  0
 14 15  2  0
  9 16  1  0
 16  5  1  0
 15 10  1  0
M  END
>  <Energy>  (241) 
-21.327583415500694

>  <Energy_Delta>  (241) 
2.1653400207558064

>  <std_smi>  (241) 
CC(=O)Nc1nc(C)c(-c2ccccn2)s1

>  <enum_smi>  (241) 
C=C(O)N=C1NC(=C)C(c2ccccn2)S1

>  <enum_code>  (241) 
T

>  <parent_uuid>  (241) 
38ce1dff-635b-49bf-aa41-0dda23e4ce8b

>  <o3da_score>  (241) 
75.690631175041176

>  <o3da_score_rel>  (241) 
0.30133540024460626

>  <o3da_align>  (241) 
0.54006667232664951

>  <RMSD>  (241) 
5.7993083383439502e-05

>  <CONVERGED>  (241) 
0

>  <ENERGY>  (241) 
-21.327583415519889

$$$$
88eb6305-ed5c-4dbd-99ef-09f44859c3a5
     RDKit          3D

 16 17  0  0  0  0  0  0  0  0999 V2000
    0.1258   30.0649    2.0650 C   0  0  0  0  0  0  0  0  0  0  0  0
   -1.0978   30.3760    1.6358 C   0  0  0  0  0  0  0  0  0  0  0  0
   -1.3984   31.6718    1.3227 O   0  0  0  0  0  0  0  0  0  0  0  0
   -2.0709   29.4554    1.4140 N   0  0  0  0  0  0  0  0  0  0  0  0
   -2.7553   29.0785    2.4409 C   0  0  0  0  0  0  0  0  0  0  0  0
   -2.7140   29.4581    3.7510 N   0  0  0  0  0  0  0  0  0  0  0  0
   -3.5404   28.8472    4.6619 C   0  0  0  0  0  0  0  0  0  0  0  0
   -3.6020   29.1643    5.9637 C   0  0  0  0  0  0  0  0  0  0  0  0
   -4.4078   27.7702    4.0064 C   0  0  2  0  0  0  0  0  0  0  0  0
   -4.1941   26.3499    4.5128 C   0  0  0  0  0  0  0  0  0  0  0  0
   -5.2278   25.4178    4.3890 C   0  0  0  0  0  0  0  0  0  0  0  0
   -5.0226   24.1121    4.8278 C   0  0  0  0  0  0  0  0  0  0  0  0
   -3.7944   23.7619    5.3723 C   0  0  0  0  0  0  0  0  0  0  0  0
   -2.8162   24.7363    5.4551 C   0  0  0  0  0  0  0  0  0  0  0  0
   -2.9877   26.0109    5.0419 N   0  0  0  0  0  0  0  0  0  0  0  0
   -4.0208   27.8748    2.1940 S   0  0  0  0  0  0  0  0  0  0  0  0
  1  2  2  3
  2  3  1  0
  2  4  1  0
  4  5  2  3
  5  6  1  0
  6  7  1  0
  7  8  2  3
  7  9  1  0
  9 10  1  1
 10 11  2  0
 11 12  1  0
 12 13  2  0
 13 14  1  0
 14 15  2  0
  9 16  1  0
 16  5  1  0
 15 10  1  0
M  END
>  <Energy>  (242) 
-21.327583415470535

>  <Energy_Delta>  (242) 
2.1653400207859654

>  <std_smi>  (242) 
CC(=O)Nc1nc(C)c(-c2ccccn2)s1

>  <enum_smi>  (242) 
C=C(O)N=C1NC(=C)C(c2ccccn2)S1

>  <enum_code>  (242) 
T

>  <parent_uuid>  (242) 
38ce1dff-635b-49bf-aa41-0dda23e4ce8b

>  <o3da_score>  (242) 
74.89737262596519

>  <o3da_score_rel>  (242) 
0.29817732270353681

>  <o3da_align>  (242) 
0.52843909093333419

>  <RMSD>  (242) 
7.9441700231064729e-05

>  <CONVERGED>  (242) 
0

>  <ENERGY>  (242) 
-21.327583415532786

$$$$
88eb6305-ed5c-4dbd-99ef-09f44859c3a5
     RDKit          3D

 16 17  0  0  0  0  0  0  0  0999 V2000
   -4.0447   26.0836    4.9189 C   0  0  0  0  0  0  0  0  0  0  0  0
   -4.4243   27.3616    4.8888 C   0  0  0  0  0  0  0  0  0  0  0  0
   -4.3939   28.1009    6.0395 O   0  0  0  0  0  0  0  0  0  0  0  0
   -4.9579   27.9576    3.7901 N   0  0  0  0  0  0  0  0  0  0  0  0
   -4.1658   28.4548    2.8908 C   0  0  0  0  0  0  0  0  0  0  0  0
   -4.6278   29.0459    1.7527 N   0  0  0  0  0  0  0  0  0  0  0  0
   -3.7453   29.5264    0.8190 C   0  0  0  0  0  0  0  0  0  0  0  0
   -4.0958   30.0585   -0.3607 C   0  0  0  0  0  0  0  0  0  0  0  0
   -2.2957   29.3553    1.2760 C   0  0  1  0  0  0  0  0  0  0  0  0
   -1.5015   30.6479    1.3519 C   0  0  0  0  0  0  0  0  0  0  0  0
   -1.8895   31.7027    2.1825 C   0  0  0  0  0  0  0  0  0  0  0  0
   -1.1286   32.8688    2.2010 C   0  0  0  0  0  0  0  0  0  0  0  0
   -0.0037   32.9613    1.3926 C   0  0  0  0  0  0  0  0  0  0  0  0
    0.3141   31.8795    0.5915 C   0  0  0  0  0  0  0  0  0  0  0  0
   -0.4068   30.7372    0.5484 N   0  0  0  0  0  0  0  0  0  0  0  0
   -2.4036   28.5021    2.9204 S   0  0  0  0  0  0  0  0  0  0  0  0
  1  2  2  3
  2  3  1  0
  2  4  1  0
  4  5  2  3
  5  6  1  0
  6  7  1  0
  7  8  2  3
  7  9  1  0
  9 10  1  1
 10 11  2  0
 11 12  1  0
 12 13  2  0
 13 14  1  0
 14 15  2  0
  9 16  1  0
 16  5  1  0
 15 10  1  0
M  END
>  <Energy>  (243) 
-19.593512362168873

>  <Energy_Delta>  (243) 
3.8994110740876273

>  <std_smi>  (243) 
CC(=O)Nc1nc(C)c(-c2ccccn2)s1

>  <enum_smi>  (243) 
C=C(O)N=C1NC(=C)C(c2ccccn2)S1

>  <enum_code>  (243) 
T

>  <parent_uuid>  (243) 
38ce1dff-635b-49bf-aa41-0dda23e4ce8b

>  <o3da_score>  (243) 
72.1107403371321

>  <o3da_score_rel>  (243) 
0.28708333467550523

>  <o3da_align>  (243) 
0.44913967699904633

>  <RMSD>  (243) 
7.6615134309367878e-05

>  <CONVERGED>  (243) 
0

>  <ENERGY>  (243) 
-19.593512362663116

$$$$
88eb6305-ed5c-4dbd-99ef-09f44859c3a5
     RDKit          3D

 16 17  0  0  0  0  0  0  0  0999 V2000
    1.2357   31.6957    1.1439 C   0  0  0  0  0  0  0  0  0  0  0  0
    0.0340   31.8770    0.5951 C   0  0  0  0  0  0  0  0  0  0  0  0
   -0.2547   33.0559   -0.0329 O   0  0  0  0  0  0  0  0  0  0  0  0
   -0.9240   30.9157    0.5540 N   0  0  0  0  0  0  0  0  0  0  0  0
   -1.6575   30.7848    1.6075 C   0  0  0  0  0  0  0  0  0  0  0  0
   -1.6825   31.4668    2.7892 N   0  0  0  0  0  0  0  0  0  0  0  0
   -2.5513   31.0790    3.7795 C   0  0  0  0  0  0  0  0  0  0  0  0
   -2.6785   31.6968    4.9631 C   0  0  0  0  0  0  0  0  0  0  0  0
   -3.3817   29.8638    3.3602 C   0  0  2  0  0  0  0  0  0  0  0  0
   -3.1891   28.6088    4.2013 C   0  0  0  0  0  0  0  0  0  0  0  0
   -4.2125   27.6589    4.2552 C   0  0  0  0  0  0  0  0  0  0  0  0
   -4.0253   26.4990    5.0029 C   0  0  0  0  0  0  0  0  0  0  0  0
   -2.8246   26.3073    5.6730 C   0  0  0  0  0  0  0  0  0  0  0  0
   -1.8548   27.2877    5.5667 C   0  0  0  0  0  0  0  0  0  0  0  0
   -2.0095   28.4240    4.8529 N   0  0  0  0  0  0  0  0  0  0  0  0
   -2.9055   29.5383    1.5960 S   0  0  0  0  0  0  0  0  0  0  0  0
  1  2  2  3
  2  3  1  0
  2  4  1  0
  4  5  2  3
  5  6  1  0
  6  7  1  0
  7  8  2  3
  7  9  1  0
  9 10  1  1
 10 11  2  0
 11 12  1  0
 12 13  2  0
 13 14  1  0
 14 15  2  0
  9 16  1  0
 16  5  1  0
 15 10  1  0
M  END
>  <Energy>  (244) 
-18.853595143495298

>  <Energy_Delta>  (244) 
4.6393282927612027

>  <std_smi>  (244) 
CC(=O)Nc1nc(C)c(-c2ccccn2)s1

>  <enum_smi>  (244) 
C=C(O)N=C1NC(=C)C(c2ccccn2)S1

>  <enum_code>  (244) 
T

>  <parent_uuid>  (244) 
38ce1dff-635b-49bf-aa41-0dda23e4ce8b

>  <o3da_score>  (244) 
93.563022263260677

>  <o3da_score_rel>  (244) 
0.37248798595157606

>  <o3da_align>  (244) 
0.58038268066311027

>  <RMSD>  (244) 
0.61521411214188937

>  <CONVERGED>  (244) 
0

>  <ENERGY>  (244) 
-21.327583415673743

$$$$
88eb6305-ed5c-4dbd-99ef-09f44859c3a5
     RDKit          3D

 16 17  0  0  0  0  0  0  0  0999 V2000
   -2.1467   33.1530    1.9053 C   0  0  0  0  0  0  0  0  0  0  0  0
   -1.2303   32.4892    2.6109 C   0  0  0  0  0  0  0  0  0  0  0  0
   -0.1974   33.1692    3.1923 O   0  0  0  0  0  0  0  0  0  0  0  0
   -1.2139   31.1371    2.7339 N   0  0  0  0  0  0  0  0  0  0  0  0
   -1.9763   30.6298    3.6429 C   0  0  0  0  0  0  0  0  0  0  0  0
   -2.8054   31.2063    4.5607 N   0  0  0  0  0  0  0  0  0  0  0  0
   -3.5535   30.4118    5.3944 C   0  0  0  0  0  0  0  0  0  0  0  0
   -4.3741   30.8738    6.3495 C   0  0  0  0  0  0  0  0  0  0  0  0
   -3.3196   28.9246    5.1197 C   0  0  1  0  0  0  0  0  0  0  0  0
   -4.5389   28.1375    4.6578 C   0  0  0  0  0  0  0  0  0  0  0  0
   -4.5839   26.7578    4.8750 C   0  0  0  0  0  0  0  0  0  0  0  0
   -5.6870   26.0345    4.4286 C   0  0  0  0  0  0  0  0  0  0  0  0
   -6.7150   26.6969    3.7715 C   0  0  0  0  0  0  0  0  0  0  0  0
   -6.5969   28.0624    3.5857 C   0  0  0  0  0  0  0  0  0  0  0  0
   -5.5417   28.7906    4.0111 N   0  0  0  0  0  0  0  0  0  0  0  0
   -1.9906   28.8753    3.8249 S   0  0  0  0  0  0  0  0  0  0  0  0
  1  2  2  3
  2  3  1  0
  2  4  1  0
  4  5  2  3
  5  6  1  0
  6  7  1  0
  7  8  2  3
  7  9  1  0
  9 10  1  6
 10 11  2  0
 11 12  1  0
 12 13  2  0
 13 14  1  0
 14 15  2  0
  9 16  1  0
 16  5  1  0
 15 10  1  0
M  END
>  <Energy>  (245) 
-18.853595143489478

>  <Energy_Delta>  (245) 
4.6393282927670221

>  <std_smi>  (245) 
CC(=O)Nc1nc(C)c(-c2ccccn2)s1

>  <enum_smi>  (245) 
C=C(O)N=C1NC(=C)C(c2ccccn2)S1

>  <enum_code>  (245) 
T

>  <parent_uuid>  (245) 
38ce1dff-635b-49bf-aa41-0dda23e4ce8b

>  <o3da_score>  (245) 
77.837912656011255

>  <o3da_score_rel>  (245) 
0.30988403981149776

>  <o3da_align>  (245) 
0.57542326028840007

>  <RMSD>  (245) 
0.615177993031783

>  <CONVERGED>  (245) 
0

>  <ENERGY>  (245) 
-21.327583415667224

$$$$
88eb6305-ed5c-4dbd-99ef-09f44859c3a5
     RDKit          3D

 16 17  0  0  0  0  0  0  0  0999 V2000
   -1.9131   24.5073    7.6879 C   0  0  0  0  0  0  0  0  0  0  0  0
   -2.0564   24.5853    6.3645 C   0  0  0  0  0  0  0  0  0  0  0  0
   -1.0276   24.1982    5.5495 O   0  0  0  0  0  0  0  0  0  0  0  0
   -3.2249   24.9371    5.7672 N   0  0  0  0  0  0  0  0  0  0  0  0
   -3.4335   26.1834    5.4722 C   0  0  0  0  0  0  0  0  0  0  0  0
   -4.5850   26.6201    4.8901 N   0  0  0  0  0  0  0  0  0  0  0  0
   -4.7159   27.9370    4.5289 C   0  0  0  0  0  0  0  0  0  0  0  0
   -5.8125   28.4674    3.9678 C   0  0  0  0  0  0  0  0  0  0  0  0
   -3.4577   28.7394    4.8646 C   0  0  2  0  0  0  0  0  0  0  0  0
   -2.7374   29.3597    3.6753 C   0  0  0  0  0  0  0  0  0  0  0  0
   -2.0024   30.5337    3.8571 C   0  0  0  0  0  0  0  0  0  0  0  0
   -1.3207   31.0833    2.7742 C   0  0  0  0  0  0  0  0  0  0  0  0
   -1.3793   30.4501    1.5399 C   0  0  0  0  0  0  0  0  0  0  0  0
   -2.1194   29.2860    1.4387 C   0  0  0  0  0  0  0  0  0  0  0  0
   -2.7929   28.7312    2.4699 N   0  0  0  0  0  0  0  0  0  0  0  0
   -2.3410   27.5416    5.7375 S   0  0  0  0  0  0  0  0  0  0  0  0
  1  2  2  3
  2  3  1  0
  2  4  1  0
  4  5  2  3
  5  6  1  0
  6  7  1  0
  7  8  2  3
  7  9  1  0
  9 10  1  6
 10 11  2  0
 11 12  1  0
 12 13  2  0
 13 14  1  0
 14 15  2  0
  9 16  1  0
 16  5  1  0
 15 10  1  0
M  END
>  <Energy>  (246) 
-17.890313351572953

>  <Energy_Delta>  (246) 
5.6026100846835476

>  <std_smi>  (246) 
CC(=O)Nc1nc(C)c(-c2ccccn2)s1

>  <enum_smi>  (246) 
C=C(O)N=C1NC(=C)C(c2ccccn2)S1

>  <enum_code>  (246) 
T

>  <parent_uuid>  (246) 
38ce1dff-635b-49bf-aa41-0dda23e4ce8b

>  <o3da_score>  (246) 
84.788241261593214

>  <o3da_score_rel>  (246) 
0.3375543078444217

>  <o3da_align>  (246) 
0.48973774719898006

>  <RMSD>  (246) 
6.4895417531282939e-05

>  <CONVERGED>  (246) 
0

>  <ENERGY>  (246) 
-17.890313351747931

$$$$
88eb6305-ed5c-4dbd-99ef-09f44859c3a5
     RDKit          3D

 16 17  0  0  0  0  0  0  0  0999 V2000
   -1.3470   30.5355   -1.5808 C   0  0  0  0  0  0  0  0  0  0  0  0
   -0.5493   30.1594   -0.5805 C   0  0  0  0  0  0  0  0  0  0  0  0
    0.3583   29.1560   -0.7831 O   0  0  0  0  0  0  0  0  0  0  0  0
   -0.5007   30.7983    0.6180 N   0  0  0  0  0  0  0  0  0  0  0  0
   -1.3549   30.4801    1.5413 C   0  0  0  0  0  0  0  0  0  0  0  0
   -1.3819   31.0935    2.7583 N   0  0  0  0  0  0  0  0  0  0  0  0
   -2.3278   30.7403    3.6868 C   0  0  0  0  0  0  0  0  0  0  0  0
   -2.4834   31.3299    4.8810 C   0  0  0  0  0  0  0  0  0  0  0  0
   -3.2127   29.5999    3.1813 C   0  0  2  0  0  0  0  0  0  0  0  0
   -3.2096   28.3615    4.0610 C   0  0  0  0  0  0  0  0  0  0  0  0
   -2.0360   27.6511    4.3279 C   0  0  0  0  0  0  0  0  0  0  0  0
   -2.0925   26.5300    5.1520 C   0  0  0  0  0  0  0  0  0  0  0  0
   -3.3109   26.1433    5.6938 C   0  0  0  0  0  0  0  0  0  0  0  0
   -4.4285   26.8997    5.3909 C   0  0  0  0  0  0  0  0  0  0  0  0
   -4.4046   27.9943    4.5987 N   0  0  0  0  0  0  0  0  0  0  0  0
   -2.6067   29.2409    1.4645 S   0  0  0  0  0  0  0  0  0  0  0  0
  1  2  2  3
  2  3  1  0
  2  4  1  0
  4  5  2  3
  5  6  1  0
  6  7  1  0
  7  8  2  3
  7  9  1  0
  9 10  1  1
 10 11  2  0
 11 12  1  0
 12 13  2  0
 13 14  1  0
 14 15  2  0
  9 16  1  0
 16  5  1  0
 15 10  1  0
M  END
>  <Energy>  (247) 
-15.874888065904228

>  <Energy_Delta>  (247) 
7.6180353703522723

>  <std_smi>  (247) 
CC(=O)Nc1nc(C)c(-c2ccccn2)s1

>  <enum_smi>  (247) 
C=C(O)N=C1NC(=C)C(c2ccccn2)S1

>  <enum_code>  (247) 
T

>  <parent_uuid>  (247) 
38ce1dff-635b-49bf-aa41-0dda23e4ce8b

>  <o3da_score>  (247) 
72.608851460790277

>  <o3da_score_rel>  (247) 
0.2890663874322818

>  <o3da_align>  (247) 
0.59083649935991911

>  <RMSD>  (247) 
0.1908866295982771

>  <CONVERGED>  (247) 
0

>  <ENERGY>  (247) 
-19.593512362700519

$$$$
88eb6305-ed5c-4dbd-99ef-09f44859c3a5
     RDKit          3D

 16 17  0  0  0  0  0  0  0  0999 V2000
   -0.8324   24.0388    5.1138 C   0  0  0  0  0  0  0  0  0  0  0  0
   -1.7825   24.4013    5.9765 C   0  0  0  0  0  0  0  0  0  0  0  0
   -1.5711   24.2408    7.3186 O   0  0  0  0  0  0  0  0  0  0  0  0
   -3.0144   24.8270    5.5920 N   0  0  0  0  0  0  0  0  0  0  0  0
   -3.1975   26.0855    5.3355 C   0  0  0  0  0  0  0  0  0  0  0  0
   -4.3970   26.5836    4.9225 N   0  0  0  0  0  0  0  0  0  0  0  0
   -4.5363   27.9243    4.6690 C   0  0  0  0  0  0  0  0  0  0  0  0
   -5.6804   28.5170    4.2980 C   0  0  0  0  0  0  0  0  0  0  0  0
   -3.2210   28.6754    4.8816 C   0  0  2  0  0  0  0  0  0  0  0  0
   -2.7160   29.4197    3.6573 C   0  0  0  0  0  0  0  0  0  0  0  0
   -2.4217   28.7570    2.4626 C   0  0  0  0  0  0  0  0  0  0  0  0
   -1.9739   29.4938    1.3690 C   0  0  0  0  0  0  0  0  0  0  0  0
   -1.8325   30.8699    1.4864 C   0  0  0  0  0  0  0  0  0  0  0  0
   -2.1499   31.4569    2.6980 C   0  0  0  0  0  0  0  0  0  0  0  0
   -2.5907   30.7697    3.7750 N   0  0  0  0  0  0  0  0  0  0  0  0
   -2.0169   27.3886    5.4634 S   0  0  0  0  0  0  0  0  0  0  0  0
  1  2  2  3
  2  3  1  0
  2  4  1  0
  4  5  2  3
  5  6  1  0
  6  7  1  0
  7  8  2  3
  7  9  1  0
  9 10  1  6
 10 11  2  0
 11 12  1  0
 12 13  2  0
 13 14  1  0
 14 15  2  0
  9 16  1  0
 16  5  1  0
 15 10  1  0
M  END
>  <Energy>  (248) 
-15.530607818124224

>  <Energy_Delta>  (248) 
7.9623156181322763

>  <std_smi>  (248) 
CC(=O)Nc1nc(C)c(-c2ccccn2)s1

>  <enum_smi>  (248) 
C=C(O)N=C1NC(=C)C(c2ccccn2)S1

>  <enum_code>  (248) 
T

>  <parent_uuid>  (248) 
38ce1dff-635b-49bf-aa41-0dda23e4ce8b

>  <o3da_score>  (248) 
79.288262316333501

>  <o3da_score_rel>  (248) 
0.31565809253906896

>  <o3da_align>  (248) 
0.47281347154130149

>  <RMSD>  (248) 
0.13895190793541451

>  <CONVERGED>  (248) 
0

>  <ENERGY>  (248) 
-19.738210863556027

$$$$
88eb6305-ed5c-4dbd-99ef-09f44859c3a5
     RDKit          3D

 16 17  0  0  0  0  0  0  0  0999 V2000
   -3.2492   27.8313    6.4205 C   0  0  0  0  0  0  0  0  0  0  0  0
   -3.7114   27.1529    5.3696 C   0  0  0  0  0  0  0  0  0  0  0  0
   -3.5502   25.7953    5.3199 O   0  0  0  0  0  0  0  0  0  0  0  0
   -4.4433   27.7245    4.3775 N   0  0  0  0  0  0  0  0  0  0  0  0
   -3.8303   28.2649    3.3699 C   0  0  0  0  0  0  0  0  0  0  0  0
   -4.4942   28.8774    2.3492 N   0  0  0  0  0  0  0  0  0  0  0  0
   -3.7961   29.4292    1.3057 C   0  0  0  0  0  0  0  0  0  0  0  0
   -4.3553   30.0167    0.2380 C   0  0  0  0  0  0  0  0  0  0  0  0
   -2.2863   29.2752    1.4965 C   0  0  1  0  0  0  0  0  0  0  0  0
   -1.5175   30.5853    1.5174 C   0  0  0  0  0  0  0  0  0  0  0  0
   -1.7781   31.5766    2.4676 C   0  0  0  0  0  0  0  0  0  0  0  0
   -1.0497   32.7628    2.4297 C   0  0  0  0  0  0  0  0  0  0  0  0
   -0.0834   32.9380    1.4484 C   0  0  0  0  0  0  0  0  0  0  0  0
    0.1137   31.9158    0.5376 C   0  0  0  0  0  0  0  0  0  0  0  0
   -0.5799   30.7559    0.5459 N   0  0  0  0  0  0  0  0  0  0  0  0
   -2.0925   28.3257    3.0792 S   0  0  0  0  0  0  0  0  0  0  0  0
  1  2  2  3
  2  3  1  0
  2  4  1  0
  4  5  2  3
  5  6  1  0
  6  7  1  0
  7  8  2  3
  7  9  1  0
  9 10  1  1
 10 11  2  0
 11 12  1  0
 12 13  2  0
 13 14  1  0
 14 15  2  0
  9 16  1  0
 16  5  1  0
 15 10  1  0
M  END
>  <Energy>  (249) 
-15.530607816726988

>  <Energy_Delta>  (249) 
7.9623156195295124

>  <std_smi>  (249) 
CC(=O)Nc1nc(C)c(-c2ccccn2)s1

>  <enum_smi>  (249) 
C=C(O)N=C1NC(=C)C(c2ccccn2)S1

>  <enum_code>  (249) 
T

>  <parent_uuid>  (249) 
38ce1dff-635b-49bf-aa41-0dda23e4ce8b

>  <o3da_score>  (249) 
84.604321311347363

>  <o3da_score_rel>  (249) 
0.33682209579968214

>  <o3da_align>  (249) 
0.46539950508636035

>  <RMSD>  (249) 
0.13894347030122095

>  <CONVERGED>  (249) 
0

>  <ENERGY>  (249) 
-19.738210863561523

$$$$
88eb6305-ed5c-4dbd-99ef-09f44859c3a5
     RDKit          3D

 16 17  0  0  0  0  0  0  0  0999 V2000
   -0.8834   24.3641    5.6323 C   0  0  0  0  0  0  0  0  0  0  0  0
   -1.9643   24.6523    6.3583 C   0  0  0  0  0  0  0  0  0  0  0  0
   -1.9264   24.4965    7.7171 O   0  0  0  0  0  0  0  0  0  0  0  0
   -3.1621   24.9918    5.8137 N   0  0  0  0  0  0  0  0  0  0  0  0
   -3.3809   26.2279    5.4838 C   0  0  0  0  0  0  0  0  0  0  0  0
   -4.5471   26.6416    4.9134 N   0  0  0  0  0  0  0  0  0  0  0  0
   -4.6924   27.9471    4.5163 C   0  0  0  0  0  0  0  0  0  0  0  0
   -5.7933   28.4469    3.9358 C   0  0  0  0  0  0  0  0  0  0  0  0
   -3.4452   28.7739    4.8335 C   0  0  2  0  0  0  0  0  0  0  0  0
   -2.7433   29.4014    3.6369 C   0  0  0  0  0  0  0  0  0  0  0  0
   -1.9912   30.5649    3.8182 C   0  0  0  0  0  0  0  0  0  0  0  0
   -1.3266   31.1217    2.7285 C   0  0  0  0  0  0  0  0  0  0  0  0
   -1.4186   30.5060    1.4874 C   0  0  0  0  0  0  0  0  0  0  0  0
   -2.1743   29.3520    1.3866 C   0  0  0  0  0  0  0  0  0  0  0  0
   -2.8325   28.7914    2.4245 N   0  0  0  0  0  0  0  0  0  0  0  0
   -2.3019   27.6039    5.7100 S   0  0  0  0  0  0  0  0  0  0  0  0
  1  2  2  3
  2  3  1  0
  2  4  1  0
  4  5  2  3
  5  6  1  0
  6  7  1  0
  7  8  2  3
  7  9  1  0
  9 10  1  6
 10 11  2  0
 11 12  1  0
 12 13  2  0
 13 14  1  0
 14 15  2  0
  9 16  1  0
 16  5  1  0
 15 10  1  0
M  END
>  <Energy>  (250) 
-13.115573534432315

>  <Energy_Delta>  (250) 
10.377349901824186

>  <std_smi>  (250) 
CC(=O)Nc1nc(C)c(-c2ccccn2)s1

>  <enum_smi>  (250) 
C=C(O)N=C1NC(=C)C(c2ccccn2)S1

>  <enum_code>  (250) 
T

>  <parent_uuid>  (250) 
38ce1dff-635b-49bf-aa41-0dda23e4ce8b

>  <o3da_score>  (250) 
83.038991893916887

>  <o3da_score_rel>  (250) 
0.33059029195297823

>  <o3da_align>  (250) 
0.5182958117568921

>  <RMSD>  (250) 
0.17254620355283617

>  <CONVERGED>  (250) 
0

>  <ENERGY>  (250) 
-17.631690337410255

$$$$
88eb6305-ed5c-4dbd-99ef-09f44859c3a5
     RDKit          3D

 16 17  0  0  0  0  0  0  0  0999 V2000
   -2.5011   22.7682    4.4384 C   0  0  0  0  0  0  0  0  0  0  0  0
   -2.6070   23.9394    5.0667 C   0  0  0  0  0  0  0  0  0  0  0  0
   -1.5849   24.3714    5.8674 O   0  0  0  0  0  0  0  0  0  0  0  0
   -3.7364   24.6942    5.0378 N   0  0  0  0  0  0  0  0  0  0  0  0
   -3.8595   25.6124    4.1292 C   0  0  0  0  0  0  0  0  0  0  0  0
   -4.9670   26.3981    4.0210 N   0  0  0  0  0  0  0  0  0  0  0  0
   -5.0066   27.4055    3.0906 C   0  0  0  0  0  0  0  0  0  0  0  0
   -6.0540   28.2197    2.8941 C   0  0  0  0  0  0  0  0  0  0  0  0
   -3.7094   27.4761    2.2834 C   0  0  1  0  0  0  0  0  0  0  0  0
   -2.9230   28.7730    2.4159 C   0  0  0  0  0  0  0  0  0  0  0  0
   -2.1208   29.1980    1.3540 C   0  0  0  0  0  0  0  0  0  0  0  0
   -1.3800   30.3696    1.4885 C   0  0  0  0  0  0  0  0  0  0  0  0
   -1.4479   31.0859    2.6760 C   0  0  0  0  0  0  0  0  0  0  0  0
   -2.2564   30.5980    3.6866 C   0  0  0  0  0  0  0  0  0  0  0  0
   -2.9881   29.4671    3.5842 N   0  0  0  0  0  0  0  0  0  0  0  0
   -2.6912   26.0445    2.8815 S   0  0  0  0  0  0  0  0  0  0  0  0
  1  2  2  3
  2  3  1  0
  2  4  1  0
  4  5  2  3
  5  6  1  0
  6  7  1  0
  7  8  2  3
  7  9  1  0
  9 10  1  1
 10 11  2  0
 11 12  1  0
 12 13  2  0
 13 14  1  0
 14 15  2  0
  9 16  1  0
 16  5  1  0
 15 10  1  0
M  END
>  <Energy>  (251) 
-12.517560996012989

>  <Energy_Delta>  (251) 
10.975362440243511

>  <std_smi>  (251) 
CC(=O)Nc1nc(C)c(-c2ccccn2)s1

>  <enum_smi>  (251) 
C=C(O)N=C1NC(=C)C(c2ccccn2)S1

>  <enum_code>  (251) 
T

>  <parent_uuid>  (251) 
38ce1dff-635b-49bf-aa41-0dda23e4ce8b

>  <o3da_score>  (251) 
71.75432864557277

>  <o3da_score_rel>  (251) 
0.28566440794625758

>  <o3da_align>  (251) 
0.53220803995750765

>  <RMSD>  (251) 
0.10842628804782427

>  <CONVERGED>  (251) 
0

>  <ENERGY>  (251) 
-17.890313351759243

$$$$
3b85fe46-b801-4bce-8a9c-2c9df0a2ae7a
     RDKit          3D

 16 17  0  0  0  0  0  0  0  0999 V2000
   -1.5810   24.3258    5.3694 C   0  0  0  0  0  0  0  0  0  0  0  0
   -2.7822   24.8609    5.1490 C   0  0  0  0  0  0  0  0  0  0  0  0
   -3.7640   24.1090    4.5673 O   0  0  0  0  0  0  0  0  0  0  0  0
   -3.1243   26.1171    5.5342 N   0  0  0  0  0  0  0  0  0  0  0  0
   -2.8105   27.0685    4.7217 C   0  0  0  0  0  0  0  0  0  0  0  0
   -2.2099   27.0664    3.4909 N   0  0  0  0  0  0  0  0  0  0  0  0
   -2.1348   28.2565    2.7973 C   0  0  0  0  0  0  0  0  0  0  0  0
   -1.9481   28.3030    1.4708 C   0  0  0  0  0  0  0  0  0  0  0  0
   -2.4454   29.3882    3.6868 C   0  0  0  0  0  0  0  0  0  0  0  0
   -2.1463   30.7104    3.6224 C   0  0  0  0  0  0  0  0  0  0  0  0
   -1.3085   31.3203    2.5733 C   0  0  0  0  0  0  0  0  0  0  0  0
   -1.0856   32.6492    2.5289 C   0  0  0  0  0  0  0  0  0  0  0  0
   -1.6621   33.5301    3.5255 C   0  0  0  0  0  0  0  0  0  0  0  0
   -2.3751   32.9786    4.5176 C   0  0  0  0  0  0  0  0  0  0  0  0
   -2.5840   31.6241    4.5878 N   0  0  0  0  0  0  0  0  0  0  0  0
   -3.2323   28.7339    5.1541 S   0  0  0  0  0  0  0  0  0  0  0  0
  1  2  2  3
  2  3  1  0
  2  4  1  0
  4  5  2  3
  5  6  1  0
  6  7  1  0
  7  8  2  3
  7  9  1  0
  9 10  2  3
 10 11  1  0
 11 12  2  0
 12 13  1  0
 13 14  2  0
 14 15  1  0
  9 16  1  0
 16  5  1  0
 15 10  1  0
M  END
>  <Energy>  (252) 
-36.052474975309096

>  <Energy_Delta>  (252) 
0

>  <std_smi>  (252) 
CC(=O)Nc1nc(C)c(-c2ccccn2)s1

>  <enum_smi>  (252) 
C=C(O)N=c1[nH]c(=C)c(=C2C=CC=CN2)s1

>  <enum_code>  (252) 
T

>  <parent_uuid>  (252) 
38ce1dff-635b-49bf-aa41-0dda23e4ce8b

>  <o3da_score>  (252) 
79.834467070873572

>  <o3da_score_rel>  (252) 
0.31783261302819277

>  <o3da_align>  (252) 
0.41453706098325543

>  <RMSD>  (252) 
6.3476679989816069e-05

>  <CONVERGED>  (252) 
0

>  <ENERGY>  (252) 
-36.05247497555186

$$$$
3b85fe46-b801-4bce-8a9c-2c9df0a2ae7a
     RDKit          3D

 16 17  0  0  0  0  0  0  0  0999 V2000
   -3.2213   24.4796    5.5518 C   0  0  0  0  0  0  0  0  0  0  0  0
   -3.7492   24.9170    4.4083 C   0  0  0  0  0  0  0  0  0  0  0  0
   -4.9444   24.4145    3.9763 O   0  0  0  0  0  0  0  0  0  0  0  0
   -3.1298   25.8050    3.5890 N   0  0  0  0  0  0  0  0  0  0  0  0
   -3.2953   27.0528    3.8706 C   0  0  0  0  0  0  0  0  0  0  0  0
   -4.0207   27.6880    4.8432 N   0  0  0  0  0  0  0  0  0  0  0  0
   -4.1105   29.0639    4.7993 C   0  0  0  0  0  0  0  0  0  0  0  0
   -5.0839   29.7394    5.4259 C   0  0  0  0  0  0  0  0  0  0  0  0
   -3.1136   29.6125    3.8645 C   0  0  0  0  0  0  0  0  0  0  0  0
   -2.5427   30.8387    3.7531 C   0  0  0  0  0  0  0  0  0  0  0  0
   -2.7875   31.9546    4.6854 C   0  0  0  0  0  0  0  0  0  0  0  0
   -2.2325   33.1688    4.4974 C   0  0  0  0  0  0  0  0  0  0  0  0
   -1.3622   33.4175    3.3651 C   0  0  0  0  0  0  0  0  0  0  0  0
   -1.0853   32.3934    2.5458 C   0  0  0  0  0  0  0  0  0  0  0  0
   -1.6224   31.1463    2.7446 N   0  0  0  0  0  0  0  0  0  0  0  0
   -2.5230   28.2699    2.8406 S   0  0  0  0  0  0  0  0  0  0  0  0
  1  2  2  3
  2  3  1  0
  2  4  1  0
  4  5  2  3
  5  6  1  0
  6  7  1  0
  7  8  2  3
  7  9  1  0
  9 10  2  3
 10 11  1  0
 11 12  2  0
 12 13  1  0
 13 14  2  0
 14 15  1  0
  9 16  1  0
 16  5  1  0
 15 10  1  0
M  END
>  <Energy>  (253) 
-36.05247497490484

>  <Energy_Delta>  (253) 
4.042561840833514e-10

>  <std_smi>  (253) 
CC(=O)Nc1nc(C)c(-c2ccccn2)s1

>  <enum_smi>  (253) 
C=C(O)N=c1[nH]c(=C)c(=C2C=CC=CN2)s1

>  <enum_code>  (253) 
T

>  <parent_uuid>  (253) 
38ce1dff-635b-49bf-aa41-0dda23e4ce8b

>  <o3da_score>  (253) 
74.217911937638306

>  <o3da_score_rel>  (253) 
0.29547229098046973

>  <o3da_align>  (253) 
0.50765398193124167

>  <RMSD>  (253) 
5.9124923451129907e-05

>  <CONVERGED>  (253) 
0

>  <ENERGY>  (253) 
-36.052474975542992

$$$$
3b85fe46-b801-4bce-8a9c-2c9df0a2ae7a
     RDKit          3D

 16 17  0  0  0  0  0  0  0  0999 V2000
   -3.6897   24.0915    4.4511 C   0  0  0  0  0  0  0  0  0  0  0  0
   -2.8177   24.8534    5.1119 C   0  0  0  0  0  0  0  0  0  0  0  0
   -1.5961   24.3455    5.4547 O   0  0  0  0  0  0  0  0  0  0  0  0
   -3.1028   26.1124    5.5323 N   0  0  0  0  0  0  0  0  0  0  0  0
   -2.8158   27.0664    4.7132 C   0  0  0  0  0  0  0  0  0  0  0  0
   -2.2587   27.0692    3.4626 N   0  0  0  0  0  0  0  0  0  0  0  0
   -2.1860   28.2652    2.7794 C   0  0  0  0  0  0  0  0  0  0  0  0
   -2.0372   28.3225    1.4487 C   0  0  0  0  0  0  0  0  0  0  0  0
   -2.4502   29.3920    3.6902 C   0  0  0  0  0  0  0  0  0  0  0  0
   -2.1362   30.7109    3.6285 C   0  0  0  0  0  0  0  0  0  0  0  0
   -1.3268   31.3213    2.5576 C   0  0  0  0  0  0  0  0  0  0  0  0
   -1.0908   32.6481    2.5174 C   0  0  0  0  0  0  0  0  0  0  0  0
   -1.6251   33.5261    3.5396 C   0  0  0  0  0  0  0  0  0  0  0  0
   -2.3100   32.9733    4.5505 C   0  0  0  0  0  0  0  0  0  0  0  0
   -2.5291   31.6201    4.6174 N   0  0  0  0  0  0  0  0  0  0  0  0
   -3.1913   28.7335    5.1796 S   0  0  0  0  0  0  0  0  0  0  0  0
  1  2  2  3
  2  3  1  0
  2  4  1  0
  4  5  2  3
  5  6  1  0
  6  7  1  0
  7  8  2  3
  7  9  1  0
  9 10  2  3
 10 11  1  0
 11 12  2  0
 12 13  1  0
 13 14  2  0
 14 15  1  0
  9 16  1  0
 16  5  1  0
 15 10  1  0
M  END
>  <Energy>  (254) 
-35.957798137707023

>  <Energy_Delta>  (254) 
0.094676837602072794

>  <std_smi>  (254) 
CC(=O)Nc1nc(C)c(-c2ccccn2)s1

>  <enum_smi>  (254) 
C=C(O)N=c1[nH]c(=C)c(=C2C=CC=CN2)s1

>  <enum_code>  (254) 
T

>  <parent_uuid>  (254) 
38ce1dff-635b-49bf-aa41-0dda23e4ce8b

>  <o3da_score>  (254) 
80.170516802167228

>  <o3da_score_rel>  (254) 
0.31917047583511382

>  <o3da_align>  (254) 
0.41071079987305442

>  <RMSD>  (254) 
7.1253258163903833e-05

>  <CONVERGED>  (254) 
0

>  <ENERGY>  (254) 
-35.957798137840214

$$$$
3b85fe46-b801-4bce-8a9c-2c9df0a2ae7a
     RDKit          3D

 16 17  0  0  0  0  0  0  0  0999 V2000
   -0.1124   30.4082    1.8680 C   0  0  0  0  0  0  0  0  0  0  0  0
   -1.3973   30.4603    1.5162 C   0  0  0  0  0  0  0  0  0  0  0  0
   -1.9518   31.6531    1.1452 O   0  0  0  0  0  0  0  0  0  0  0  0
   -2.1968   29.3659    1.4367 N   0  0  0  0  0  0  0  0  0  0  0  0
   -2.7554   28.9861    2.5356 C   0  0  0  0  0  0  0  0  0  0  0  0
   -2.7309   29.4994    3.8051 N   0  0  0  0  0  0  0  0  0  0  0  0
   -3.5582   28.9363    4.7547 C   0  0  0  0  0  0  0  0  0  0  0  0
   -3.9106   29.5843    5.8737 C   0  0  0  0  0  0  0  0  0  0  0  0
   -4.0878   27.6491    4.2740 C   0  0  0  0  0  0  0  0  0  0  0  0
   -4.5912   26.5684    4.9224 C   0  0  0  0  0  0  0  0  0  0  0  0
   -4.6493   26.4353    6.3898 C   0  0  0  0  0  0  0  0  0  0  0  0
   -5.2075   25.3601    6.9816 C   0  0  0  0  0  0  0  0  0  0  0  0
   -5.7682   24.2855    6.1865 C   0  0  0  0  0  0  0  0  0  0  0  0
   -5.6662   24.3688    4.8525 C   0  0  0  0  0  0  0  0  0  0  0  0
   -5.0743   25.4455    4.2411 N   0  0  0  0  0  0  0  0  0  0  0  0
   -3.8187   27.5694    2.5073 S   0  0  0  0  0  0  0  0  0  0  0  0
  1  2  2  3
  2  3  1  0
  2  4  1  0
  4  5  2  3
  5  6  1  0
  6  7  1  0
  7  8  2  3
  7  9  1  0
  9 10  2  3
 10 11  1  0
 11 12  2  0
 12 13  1  0
 13 14  2  0
 14 15  1  0
  9 16  1  0
 16  5  1  0
 15 10  1  0
M  END
>  <Energy>  (255) 
-34.346326706108322

>  <Energy_Delta>  (255) 
1.7061482692007743

>  <std_smi>  (255) 
CC(=O)Nc1nc(C)c(-c2ccccn2)s1

>  <enum_smi>  (255) 
C=C(O)N=c1[nH]c(=C)c(=C2C=CC=CN2)s1

>  <enum_code>  (255) 
T

>  <parent_uuid>  (255) 
38ce1dff-635b-49bf-aa41-0dda23e4ce8b

>  <o3da_score>  (255) 
75.01960384865049

>  <o3da_score_rel>  (255) 
0.29866394296073989

>  <o3da_align>  (255) 
0.50348823611488203

>  <RMSD>  (255) 
0.50913151057142736

>  <CONVERGED>  (255) 
0

>  <ENERGY>  (255) 
-36.052474975552286

$$$$
3b85fe46-b801-4bce-8a9c-2c9df0a2ae7a
     RDKit          3D

 16 17  0  0  0  0  0  0  0  0999 V2000
   -3.8524   24.9527    6.5684 C   0  0  0  0  0  0  0  0  0  0  0  0
   -4.0728   25.1223    5.2645 C   0  0  0  0  0  0  0  0  0  0  0  0
   -5.1398   24.5088    4.6706 O   0  0  0  0  0  0  0  0  0  0  0  0
   -3.2475   25.8310    4.4522 N   0  0  0  0  0  0  0  0  0  0  0  0
   -3.4499   27.1040    4.4037 C   0  0  0  0  0  0  0  0  0  0  0  0
   -4.3807   27.9099    5.0024 N   0  0  0  0  0  0  0  0  0  0  0  0
   -4.4238   29.2380    4.6359 C   0  0  0  0  0  0  0  0  0  0  0  0
   -5.4987   30.0117    4.8457 C   0  0  0  0  0  0  0  0  0  0  0  0
   -3.2141   29.6045    3.8713 C   0  0  0  0  0  0  0  0  0  0  0  0
   -2.6742   30.8361    3.6715 C   0  0  0  0  0  0  0  0  0  0  0  0
   -1.4804   31.0442    2.8180 C   0  0  0  0  0  0  0  0  0  0  0  0
   -0.9179   32.2582    2.6622 C   0  0  0  0  0  0  0  0  0  0  0  0
   -1.4562   33.4127    3.3488 C   0  0  0  0  0  0  0  0  0  0  0  0
   -2.5384   33.2394    4.1192 C   0  0  0  0  0  0  0  0  0  0  0  0
   -3.1546   32.0157    4.2541 N   0  0  0  0  0  0  0  0  0  0  0  0
   -2.4192   28.0951    3.3597 S   0  0  0  0  0  0  0  0  0  0  0  0
  1  2  2  3
  2  3  1  0
  2  4  1  0
  4  5  2  3
  5  6  1  0
  6  7  1  0
  7  8  2  3
  7  9  1  0
  9 10  2  3
 10 11  1  0
 11 12  2  0
 12 13  1  0
 13 14  2  0
 14 15  1  0
  9 16  1  0
 16  5  1  0
 15 10  1  0
M  END
>  <Energy>  (256) 
-34.224443955441352

>  <Energy_Delta>  (256) 
1.8280310198677441

>  <std_smi>  (256) 
CC(=O)Nc1nc(C)c(-c2ccccn2)s1

>  <enum_smi>  (256) 
C=C(O)N=c1[nH]c(=C)c(=C2C=CC=CN2)s1

>  <enum_code>  (256) 
T

>  <parent_uuid>  (256) 
38ce1dff-635b-49bf-aa41-0dda23e4ce8b

>  <o3da_score>  (256) 
70.81061237225812

>  <o3da_score_rel>  (256) 
0.28190733634410681

>  <o3da_align>  (256) 
0.62802627199620942

>  <RMSD>  (256) 
6.7751999577028647e-05

>  <CONVERGED>  (256) 
0

>  <ENERGY>  (256) 
-34.224443955526809

$$$$
3b85fe46-b801-4bce-8a9c-2c9df0a2ae7a
     RDKit          3D

 16 17  0  0  0  0  0  0  0  0999 V2000
   -3.7626   23.4288    4.7289 C   0  0  0  0  0  0  0  0  0  0  0  0
   -4.7841   24.2155    4.3895 C   0  0  0  0  0  0  0  0  0  0  0  0
   -5.8263   23.7026    3.6696 O   0  0  0  0  0  0  0  0  0  0  0  0
   -4.8914   25.5118    4.7783 N   0  0  0  0  0  0  0  0  0  0  0  0
   -4.2926   26.3812    4.0370 C   0  0  0  0  0  0  0  0  0  0  0  0
   -3.5713   26.2608    2.8796 N   0  0  0  0  0  0  0  0  0  0  0  0
   -3.1687   27.4140    2.2408 C   0  0  0  0  0  0  0  0  0  0  0  0
   -2.8131   27.4383    0.9480 C   0  0  0  0  0  0  0  0  0  0  0  0
   -3.3379   28.5838    3.1268 C   0  0  0  0  0  0  0  0  0  0  0  0
   -2.7260   29.7961    3.0621 C   0  0  0  0  0  0  0  0  0  0  0  0
   -3.0561   30.8965    3.9986 C   0  0  0  0  0  0  0  0  0  0  0  0
   -2.4128   32.0795    3.9642 C   0  0  0  0  0  0  0  0  0  0  0  0
   -1.3489   32.3116    3.0112 C   0  0  0  0  0  0  0  0  0  0  0  0
   -1.0441   31.3270    2.1553 C   0  0  0  0  0  0  0  0  0  0  0  0
   -1.7213   30.1283    2.1446 N   0  0  0  0  0  0  0  0  0  0  0  0
   -4.3940   28.0937    4.4746 S   0  0  0  0  0  0  0  0  0  0  0  0
  1  2  2  3
  2  3  1  0
  2  4  1  0
  4  5  2  3
  5  6  1  0
  6  7  1  0
  7  8  2  3
  7  9  1  0
  9 10  2  3
 10 11  1  0
 11 12  2  0
 12 13  1  0
 13 14  2  0
 14 15  1  0
  9 16  1  0
 16  5  1  0
 15 10  1  0
M  END
>  <Energy>  (257) 
-34.224443955352314

>  <Energy_Delta>  (257) 
1.8280310199567822

>  <std_smi>  (257) 
CC(=O)Nc1nc(C)c(-c2ccccn2)s1

>  <enum_smi>  (257) 
C=C(O)N=c1[nH]c(=C)c(=C2C=CC=CN2)s1

>  <enum_code>  (257) 
T

>  <parent_uuid>  (257) 
38ce1dff-635b-49bf-aa41-0dda23e4ce8b

>  <o3da_score>  (257) 
71.546220499859871

>  <o3da_score_rel>  (257) 
0.28483589918091867

>  <o3da_align>  (257) 
0.66721477656766448

>  <RMSD>  (257) 
5.9623715210937107e-05

>  <CONVERGED>  (257) 
0

>  <ENERGY>  (257) 
-34.224443955524087

$$$$
3b85fe46-b801-4bce-8a9c-2c9df0a2ae7a
     RDKit          3D

 16 17  0  0  0  0  0  0  0  0999 V2000
   -8.0053   23.2638    4.1007 C   0  0  0  0  0  0  0  0  0  0  0  0
   -7.0156   23.3868    3.2155 C   0  0  0  0  0  0  0  0  0  0  0  0
   -7.3008   23.7667    1.9328 O   0  0  0  0  0  0  0  0  0  0  0  0
   -5.7279   23.0501    3.4879 N   0  0  0  0  0  0  0  0  0  0  0  0
   -4.9444   23.9444    4.0065 C   0  0  0  0  0  0  0  0  0  0  0  0
   -3.6430   23.6986    4.3459 N   0  0  0  0  0  0  0  0  0  0  0  0
   -2.9392   24.6769    5.0150 C   0  0  0  0  0  0  0  0  0  0  0  0
   -1.8442   24.4068    5.7390 C   0  0  0  0  0  0  0  0  0  0  0  0
   -3.6539   25.9612    4.9370 C   0  0  0  0  0  0  0  0  0  0  0  0
   -3.2412   27.2472    5.0687 C   0  0  0  0  0  0  0  0  0  0  0  0
   -1.8373   27.6499    5.2716 C   0  0  0  0  0  0  0  0  0  0  0  0
   -1.4895   28.9404    5.4482 C   0  0  0  0  0  0  0  0  0  0  0  0
   -2.4938   29.9857    5.4372 C   0  0  0  0  0  0  0  0  0  0  0  0
   -3.7648   29.6364    5.1934 C   0  0  0  0  0  0  0  0  0  0  0  0
   -4.1250   28.3290    4.9829 N   0  0  0  0  0  0  0  0  0  0  0  0
   -5.3315   25.6232    4.4182 S   0  0  0  0  0  0  0  0  0  0  0  0
  1  2  2  3
  2  3  1  0
  2  4  1  0
  4  5  2  3
  5  6  1  0
  6  7  1  0
  7  8  2  3
  7  9  1  0
  9 10  2  3
 10 11  1  0
 11 12  2  0
 12 13  1  0
 13 14  2  0
 14 15  1  0
  9 16  1  0
 16  5  1  0
 15 10  1  0
M  END
>  <Energy>  (258) 
-32.75769142797067

>  <Energy_Delta>  (258) 
3.2947835473384259

>  <std_smi>  (258) 
CC(=O)Nc1nc(C)c(-c2ccccn2)s1

>  <enum_smi>  (258) 
C=C(O)N=c1[nH]c(=C)c(=C2C=CC=CN2)s1

>  <enum_code>  (258) 
T

>  <parent_uuid>  (258) 
38ce1dff-635b-49bf-aa41-0dda23e4ce8b

>  <o3da_score>  (258) 
72.018514856977205

>  <o3da_score_rel>  (258) 
0.28671617163902641

>  <o3da_align>  (258) 
0.49958607338430078

>  <RMSD>  (258) 
5.8072423353722876e-05

>  <CONVERGED>  (258) 
0

>  <ENERGY>  (258) 
-32.7576914281575

$$$$
3b85fe46-b801-4bce-8a9c-2c9df0a2ae7a
     RDKit          3D

 16 17  0  0  0  0  0  0  0  0999 V2000
   -6.8919   23.5616    1.6555 C   0  0  0  0  0  0  0  0  0  0  0  0
   -6.9087   23.4154    2.9809 C   0  0  0  0  0  0  0  0  0  0  0  0
   -8.0874   23.5562    3.6605 O   0  0  0  0  0  0  0  0  0  0  0  0
   -5.8244   23.0242    3.6999 N   0  0  0  0  0  0  0  0  0  0  0  0
   -5.0015   23.9291    4.1320 C   0  0  0  0  0  0  0  0  0  0  0  0
   -3.8665   23.6388    4.8367 N   0  0  0  0  0  0  0  0  0  0  0  0
   -2.9917   24.6628    5.1304 C   0  0  0  0  0  0  0  0  0  0  0  0
   -1.7042   24.4442    5.4317 C   0  0  0  0  0  0  0  0  0  0  0  0
   -3.6386   25.9653    4.9034 C   0  0  0  0  0  0  0  0  0  0  0  0
   -3.3845   27.2089    5.3835 C   0  0  0  0  0  0  0  0  0  0  0  0
   -2.3423   27.5148    6.3807 C   0  0  0  0  0  0  0  0  0  0  0  0
   -2.0981   28.7776    6.7848 C   0  0  0  0  0  0  0  0  0  0  0  0
   -2.8647   29.8865    6.2517 C   0  0  0  0  0  0  0  0  0  0  0  0
   -3.8544   29.6124    5.3902 C   0  0  0  0  0  0  0  0  0  0  0  0
   -4.1306   28.3274    4.9952 N   0  0  0  0  0  0  0  0  0  0  0  0
   -5.1028   25.6843    3.9162 S   0  0  0  0  0  0  0  0  0  0  0  0
  1  2  2  3
  2  3  1  0
  2  4  1  0
  4  5  2  3
  5  6  1  0
  6  7  1  0
  7  8  2  3
  7  9  1  0
  9 10  2  3
 10 11  1  0
 11 12  2  0
 12 13  1  0
 13 14  2  0
 14 15  1  0
  9 16  1  0
 16  5  1  0
 15 10  1  0
M  END
>  <Energy>  (259) 
-32.757691427704231

>  <Energy_Delta>  (259) 
3.2947835476048652

>  <std_smi>  (259) 
CC(=O)Nc1nc(C)c(-c2ccccn2)s1

>  <enum_smi>  (259) 
C=C(O)N=c1[nH]c(=C)c(=C2C=CC=CN2)s1

>  <enum_code>  (259) 
T

>  <parent_uuid>  (259) 
38ce1dff-635b-49bf-aa41-0dda23e4ce8b

>  <o3da_score>  (259) 
71.844656072343838

>  <o3da_score_rel>  (259) 
0.28602401455643606

>  <o3da_align>  (259) 
0.50921739144769518

>  <RMSD>  (259) 
7.2559199657162962e-05

>  <CONVERGED>  (259) 
0

>  <ENERGY>  (259) 
-32.757691428156484

$$$$
3b85fe46-b801-4bce-8a9c-2c9df0a2ae7a
     RDKit          3D

 16 17  0  0  0  0  0  0  0  0999 V2000
   -1.9161   24.2748    4.9426 C   0  0  0  0  0  0  0  0  0  0  0  0
   -3.0835   24.8538    4.6606 C   0  0  0  0  0  0  0  0  0  0  0  0
   -4.0201   24.1748    3.9330 O   0  0  0  0  0  0  0  0  0  0  0  0
   -3.4388   26.0823    5.1163 N   0  0  0  0  0  0  0  0  0  0  0  0
   -3.0469   27.0881    4.4102 C   0  0  0  0  0  0  0  0  0  0  0  0
   -2.3469   27.1697    3.2364 N   0  0  0  0  0  0  0  0  0  0  0  0
   -2.2014   28.4087    2.6503 C   0  0  0  0  0  0  0  0  0  0  0  0
   -1.8923   28.5642    1.3547 C   0  0  0  0  0  0  0  0  0  0  0  0
   -2.5788   29.4779    3.5972 C   0  0  0  0  0  0  0  0  0  0  0  0
   -2.2249   30.7905    3.5839 C   0  0  0  0  0  0  0  0  0  0  0  0
   -2.7445   31.7569    4.5803 C   0  0  0  0  0  0  0  0  0  0  0  0
   -2.3532   33.0458    4.5953 C   0  0  0  0  0  0  0  0  0  0  0  0
   -1.3833   33.5320    3.6377 C   0  0  0  0  0  0  0  0  0  0  0  0
   -0.9096   32.6700    2.7281 C   0  0  0  0  0  0  0  0  0  0  0  0
   -1.3321   31.3610    2.6679 N   0  0  0  0  0  0  0  0  0  0  0  0
   -3.4787   28.7227    4.9357 S   0  0  0  0  0  0  0  0  0  0  0  0
  1  2  2  3
  2  3  1  0
  2  4  1  0
  4  5  2  3
  5  6  1  0
  6  7  1  0
  7  8  2  3
  7  9  1  0
  9 10  2  3
 10 11  1  0
 11 12  2  0
 12 13  1  0
 13 14  2  0
 14 15  1  0
  9 16  1  0
 16  5  1  0
 15 10  1  0
M  END
>  <Energy>  (260) 
-32.477885851072948

>  <Energy_Delta>  (260) 
3.5745891242361481

>  <std_smi>  (260) 
CC(=O)Nc1nc(C)c(-c2ccccn2)s1

>  <enum_smi>  (260) 
C=C(O)N=c1[nH]c(=C)c(=C2C=CC=CN2)s1

>  <enum_code>  (260) 
T

>  <parent_uuid>  (260) 
38ce1dff-635b-49bf-aa41-0dda23e4ce8b

>  <o3da_score>  (260) 
70.466835376741017

>  <o3da_score_rel>  (260) 
0.28053871017557258

>  <o3da_align>  (260) 
0.487539016530873

>  <RMSD>  (260) 
0.50892712442772658

>  <CONVERGED>  (260) 
0

>  <ENERGY>  (260) 
-34.224443955525103

$$$$
3b85fe46-b801-4bce-8a9c-2c9df0a2ae7a
     RDKit          3D

 16 17  0  0  0  0  0  0  0  0999 V2000
    1.3894   31.7065    1.5792 C   0  0  0  0  0  0  0  0  0  0  0  0
    0.1324   31.8736    1.1667 C   0  0  0  0  0  0  0  0  0  0  0  0
   -0.3854   33.1364    1.0749 O   0  0  0  0  0  0  0  0  0  0  0  0
   -0.6472   30.8534    0.7223 N   0  0  0  0  0  0  0  0  0  0  0  0
   -1.3482   30.1819    1.5827 C   0  0  0  0  0  0  0  0  0  0  0  0
   -2.1384   29.1198    1.2425 N   0  0  0  0  0  0  0  0  0  0  0  0
   -2.7307   28.3928    2.2513 C   0  0  0  0  0  0  0  0  0  0  0  0
   -3.1763   27.1402    2.0769 C   0  0  0  0  0  0  0  0  0  0  0  0
   -2.6521   29.1270    3.5300 C   0  0  0  0  0  0  0  0  0  0  0  0
   -3.4189   28.9835    4.6432 C   0  0  0  0  0  0  0  0  0  0  0  0
   -3.1685   29.7635    5.8784 C   0  0  0  0  0  0  0  0  0  0  0  0
   -3.9607   29.6563    6.9626 C   0  0  0  0  0  0  0  0  0  0  0  0
   -5.1107   28.7779    6.9502 C   0  0  0  0  0  0  0  0  0  0  0  0
   -5.3451   28.0628    5.8418 C   0  0  0  0  0  0  0  0  0  0  0  0
   -4.5209   28.1247    4.7408 N   0  0  0  0  0  0  0  0  0  0  0  0
   -1.4486   30.4242    3.3333 S   0  0  0  0  0  0  0  0  0  0  0  0
  1  2  2  3
  2  3  1  0
  2  4  1  0
  4  5  2  3
  5  6  1  0
  6  7  1  0
  7  8  2  3
  7  9  1  0
  9 10  2  3
 10 11  1  0
 11 12  2  0
 12 13  1  0
 13 14  2  0
 14 15  1  0
  9 16  1  0
 16  5  1  0
 15 10  1  0
M  END
>  <Energy>  (261) 
-30.915728951942107

>  <Energy_Delta>  (261) 
5.1367460233669888

>  <std_smi>  (261) 
CC(=O)Nc1nc(C)c(-c2ccccn2)s1

>  <enum_smi>  (261) 
C=C(O)N=c1[nH]c(=C)c(=C2C=CC=CN2)s1

>  <enum_code>  (261) 
T

>  <parent_uuid>  (261) 
38ce1dff-635b-49bf-aa41-0dda23e4ce8b

>  <o3da_score>  (261) 
75.120199746909336

>  <o3da_score_rel>  (261) 
0.29906442984787779

>  <o3da_align>  (261) 
0.56023490862874659

>  <RMSD>  (261) 
7.0186639507212087e-05

>  <CONVERGED>  (261) 
0

>  <ENERGY>  (261) 
-30.915728952278442

$$$$
3b85fe46-b801-4bce-8a9c-2c9df0a2ae7a
     RDKit          3D

 16 17  0  0  0  0  0  0  0  0999 V2000
   -5.4107   23.9586    3.1130 C   0  0  0  0  0  0  0  0  0  0  0  0
   -4.8502   24.3352    4.2630 C   0  0  0  0  0  0  0  0  0  0  0  0
   -4.0718   23.4490    4.9557 O   0  0  0  0  0  0  0  0  0  0  0  0
   -5.0953   25.5338    4.8542 N   0  0  0  0  0  0  0  0  0  0  0  0
   -4.3866   26.5613    4.5014 C   0  0  0  0  0  0  0  0  0  0  0  0
   -4.5611   27.8113    5.0248 N   0  0  0  0  0  0  0  0  0  0  0  0
   -3.6676   28.8013    4.6823 C   0  0  0  0  0  0  0  0  0  0  0  0
   -3.5177   29.9222    5.4027 C   0  0  0  0  0  0  0  0  0  0  0  0
   -2.8379   28.3731    3.5381 C   0  0  0  0  0  0  0  0  0  0  0  0
   -2.1357   29.1380    2.6606 C   0  0  0  0  0  0  0  0  0  0  0  0
   -1.2927   28.5432    1.5963 C   0  0  0  0  0  0  0  0  0  0  0  0
   -0.6384   29.3029    0.6966 C   0  0  0  0  0  0  0  0  0  0  0  0
   -0.7546   30.7449    0.7273 C   0  0  0  0  0  0  0  0  0  0  0  0
   -1.5090   31.2957    1.6878 C   0  0  0  0  0  0  0  0  0  0  0  0
   -2.1475   30.5384    2.6441 N   0  0  0  0  0  0  0  0  0  0  0  0
   -3.0384   26.6131    3.3551 S   0  0  0  0  0  0  0  0  0  0  0  0
  1  2  2  3
  2  3  1  0
  2  4  1  0
  4  5  2  3
  5  6  1  0
  6  7  1  0
  7  8  2  3
  7  9  1  0
  9 10  2  3
 10 11  1  0
 11 12  2  0
 12 13  1  0
 13 14  2  0
 14 15  1  0
  9 16  1  0
 16  5  1  0
 15 10  1  0
M  END
>  <Energy>  (262) 
-26.718834024830802

>  <Energy_Delta>  (262) 
9.3336409504782942

>  <std_smi>  (262) 
CC(=O)Nc1nc(C)c(-c2ccccn2)s1

>  <enum_smi>  (262) 
C=C(O)N=c1[nH]c(=C)c(=C2C=CC=CN2)s1

>  <enum_code>  (262) 
T

>  <parent_uuid>  (262) 
38ce1dff-635b-49bf-aa41-0dda23e4ce8b

>  <o3da_score>  (262) 
76.669811048658815

>  <o3da_score_rel>  (262) 
0.30523365759227822

>  <o3da_align>  (262) 
0.50453121126235156

>  <RMSD>  (262) 
0.14453736609759146

>  <CONVERGED>  (262) 
0

>  <ENERGY>  (262) 
-30.781880304679856

$$$$
3c2ed958-9d5c-4639-a842-d3983d8ee6bd
     RDKit          3D

 16 17  0  0  0  0  0  0  0  0999 V2000
   -1.7033   24.1884    5.3174 C   0  0  0  0  0  0  0  0  0  0  0  0
   -2.8416   24.8482    5.1015 C   0  0  0  0  0  0  0  0  0  0  0  0
   -3.8658   24.2352    4.4359 O   0  0  0  0  0  0  0  0  0  0  0  0
   -3.0784   26.0999    5.5709 N   0  0  0  0  0  0  0  0  0  0  0  0
   -2.6884   27.0745    4.8213 C   0  0  0  0  0  0  0  0  0  0  0  0
   -2.0815   27.1070    3.6002 N   0  0  0  0  0  0  0  0  0  0  0  0
   -1.7915   28.3250    3.0221 C   0  0  0  0  0  0  0  0  0  0  0  0
   -1.2160   28.4111    1.8142 C   0  0  0  0  0  0  0  0  0  0  0  0
   -2.2078   29.4399    3.9078 C   0  0  0  0  0  0  0  0  0  0  0  0
   -2.0803   30.7821    3.7222 C   0  0  0  0  0  0  0  0  0  0  0  0
   -2.5468   31.7636    4.7056 C   0  0  0  0  0  0  0  0  0  0  0  0
   -2.4256   33.0865    4.5406 C   0  0  0  0  0  0  0  0  0  0  0  0
   -1.7978   33.6583    3.3259 C   0  0  0  0  0  0  0  0  0  0  0  0
   -1.3634   32.5614    2.3929 C   0  0  0  0  0  0  0  0  0  0  0  0
   -1.4923   31.2837    2.5751 N   0  0  0  0  0  0  0  0  0  0  0  0
   -2.9504   28.7313    5.3711 S   0  0  0  0  0  0  0  0  0  0  0  0
  1  2  2  3
  2  3  1  0
  2  4  1  0
  4  5  2  3
  5  6  1  0
  6  7  1  0
  7  8  2  3
  7  9  1  0
  9 10  2  3
 10 11  1  0
 11 12  2  0
 12 13  1  0
 13 14  1  0
 14 15  2  0
  9 16  1  0
 16  5  1  0
 15 10  1  0
M  END
>  <Energy>  (263) 
-27.019306642761435

>  <Energy_Delta>  (263) 
0

>  <std_smi>  (263) 
CC(=O)Nc1nc(C)c(-c2ccccn2)s1

>  <enum_smi>  (263) 
C=C(O)N=c1[nH]c(=C)c(=C2C=CCC=N2)s1

>  <enum_code>  (263) 
T

>  <parent_uuid>  (263) 
38ce1dff-635b-49bf-aa41-0dda23e4ce8b

>  <o3da_score>  (263) 
77.140778974462989

>  <o3da_score_rel>  (263) 
0.3071086493346033

>  <o3da_align>  (263) 
0.58612319258728363

>  <RMSD>  (263) 
6.4273156311872232e-05

>  <CONVERGED>  (263) 
0

>  <ENERGY>  (263) 
-27.019306642776847

$$$$
3c2ed958-9d5c-4639-a842-d3983d8ee6bd
     RDKit          3D

 16 17  0  0  0  0  0  0  0  0999 V2000
   -3.8020   24.2510    4.3245 C   0  0  0  0  0  0  0  0  0  0  0  0
   -2.8810   24.8584    5.0731 C   0  0  0  0  0  0  0  0  0  0  0  0
   -1.7398   24.1910    5.4196 O   0  0  0  0  0  0  0  0  0  0  0  0
   -3.0386   26.1073    5.5818 N   0  0  0  0  0  0  0  0  0  0  0  0
   -2.6733   27.0838    4.8222 C   0  0  0  0  0  0  0  0  0  0  0  0
   -2.1234   27.1198    3.5745 N   0  0  0  0  0  0  0  0  0  0  0  0
   -1.8158   28.3384    3.0067 C   0  0  0  0  0  0  0  0  0  0  0  0
   -1.2537   28.4269    1.7926 C   0  0  0  0  0  0  0  0  0  0  0  0
   -2.1836   29.4505    3.9169 C   0  0  0  0  0  0  0  0  0  0  0  0
   -2.0682   30.7933    3.7280 C   0  0  0  0  0  0  0  0  0  0  0  0
   -2.4842   31.7719    4.7367 C   0  0  0  0  0  0  0  0  0  0  0  0
   -2.3813   33.0955    4.5654 C   0  0  0  0  0  0  0  0  0  0  0  0
   -1.8277   33.6713    3.3169 C   0  0  0  0  0  0  0  0  0  0  0  0
   -1.4345   32.5771    2.3628 C   0  0  0  0  0  0  0  0  0  0  0  0
   -1.5438   31.2985    2.5520 N   0  0  0  0  0  0  0  0  0  0  0  0
   -2.8600   28.7377    5.4101 S   0  0  0  0  0  0  0  0  0  0  0  0
  1  2  2  3
  2  3  1  0
  2  4  1  0
  4  5  2  3
  5  6  1  0
  6  7  1  0
  7  8  2  3
  7  9  1  0
  9 10  2  3
 10 11  1  0
 11 12  2  0
 12 13  1  0
 13 14  1  0
 14 15  2  0
  9 16  1  0
 16  5  1  0
 15 10  1  0
M  END
>  <Energy>  (264) 
-27.019306642730939

>  <Energy_Delta>  (264) 
3.04964942188235e-11

>  <std_smi>  (264) 
CC(=O)Nc1nc(C)c(-c2ccccn2)s1

>  <enum_smi>  (264) 
C=C(O)N=c1[nH]c(=C)c(=C2C=CCC=N2)s1

>  <enum_code>  (264) 
T

>  <parent_uuid>  (264) 
38ce1dff-635b-49bf-aa41-0dda23e4ce8b

>  <o3da_score>  (264) 
76.712709473121919

>  <o3da_score_rel>  (264) 
0.30540444245303011

>  <o3da_align>  (264) 
0.60161771376936746

>  <RMSD>  (264) 
6.5774150869915272e-05

>  <CONVERGED>  (264) 
0

>  <ENERGY>  (264) 
-27.01930664282099

$$$$
3c2ed958-9d5c-4639-a842-d3983d8ee6bd
     RDKit          3D

 16 17  0  0  0  0  0  0  0  0999 V2000
    1.1634   32.2069    0.8925 C   0  0  0  0  0  0  0  0  0  0  0  0
   -0.0889   31.9968    0.4861 C   0  0  0  0  0  0  0  0  0  0  0  0
   -0.7686   32.9906   -0.1606 O   0  0  0  0  0  0  0  0  0  0  0  0
   -0.7257   30.8050    0.6184 N   0  0  0  0  0  0  0  0  0  0  0  0
   -1.3428   30.6076    1.7338 C   0  0  0  0  0  0  0  0  0  0  0  0
   -1.5089   31.3868    2.8410 N   0  0  0  0  0  0  0  0  0  0  0  0
   -2.2499   30.9062    3.9002 C   0  0  0  0  0  0  0  0  0  0  0  0
   -2.4612   31.6411    5.0015 C   0  0  0  0  0  0  0  0  0  0  0  0
   -2.7415   29.5352    3.6190 C   0  0  0  0  0  0  0  0  0  0  0  0
   -3.4809   28.7062    4.4053 C   0  0  0  0  0  0  0  0  0  0  0  0
   -3.8882   27.3653    3.9762 C   0  0  0  0  0  0  0  0  0  0  0  0
   -4.6117   26.5361    4.7384 C   0  0  0  0  0  0  0  0  0  0  0  0
   -5.0582   26.9280    6.0963 C   0  0  0  0  0  0  0  0  0  0  0  0
   -4.5859   28.3179    6.4240 C   0  0  0  0  0  0  0  0  0  0  0  0
   -3.8847   29.1038    5.6670 N   0  0  0  0  0  0  0  0  0  0  0  0
   -2.1833   29.0757    1.9842 S   0  0  0  0  0  0  0  0  0  0  0  0
  1  2  2  3
  2  3  1  0
  2  4  1  0
  4  5  2  3
  5  6  1  0
  6  7  1  0
  7  8  2  3
  7  9  1  0
  9 10  2  3
 10 11  1  0
 11 12  2  0
 12 13  1  0
 13 14  1  0
 14 15  2  0
  9 16  1  0
 16  5  1  0
 15 10  1  0
M  END
>  <Energy>  (265) 
-24.908084055672226

>  <Energy_Delta>  (265) 
2.111222587089209

>  <std_smi>  (265) 
CC(=O)Nc1nc(C)c(-c2ccccn2)s1

>  <enum_smi>  (265) 
C=C(O)N=c1[nH]c(=C)c(=C2C=CCC=N2)s1

>  <enum_code>  (265) 
T

>  <parent_uuid>  (265) 
38ce1dff-635b-49bf-aa41-0dda23e4ce8b

>  <o3da_score>  (265) 
86.07645640117056

>  <o3da_score_rel>  (265) 
0.34268287948742976

>  <o3da_align>  (265) 
0.4249636717323802

>  <RMSD>  (265) 
0.58936668397280589

>  <CONVERGED>  (265) 
0

>  <ENERGY>  (265) 
-27.01930664282272

$$$$
3c2ed958-9d5c-4639-a842-d3983d8ee6bd
     RDKit          3D

 16 17  0  0  0  0  0  0  0  0999 V2000
   -5.6093   24.0313    3.1860 C   0  0  0  0  0  0  0  0  0  0  0  0
   -4.8417   24.3783    4.2198 C   0  0  0  0  0  0  0  0  0  0  0  0
   -3.8841   23.5117    4.6705 O   0  0  0  0  0  0  0  0  0  0  0  0
   -5.0261   25.5190    4.9344 N   0  0  0  0  0  0  0  0  0  0  0  0
   -4.4490   26.6092    4.5327 C   0  0  0  0  0  0  0  0  0  0  0  0
   -4.5851   27.8080    5.1641 N   0  0  0  0  0  0  0  0  0  0  0  0
   -3.9445   28.9202    4.6631 C   0  0  0  0  0  0  0  0  0  0  0  0
   -4.0798   30.1273    5.2306 C   0  0  0  0  0  0  0  0  0  0  0  0
   -3.1460   28.5676    3.4647 C   0  0  0  0  0  0  0  0  0  0  0  0
   -2.3484   29.3582    2.6961 C   0  0  0  0  0  0  0  0  0  0  0  0
   -1.6178   28.8494    1.5320 C   0  0  0  0  0  0  0  0  0  0  0  0
   -0.8270   29.6124    0.7676 C   0  0  0  0  0  0  0  0  0  0  0  0
   -0.6339   31.0537    1.0547 C   0  0  0  0  0  0  0  0  0  0  0  0
   -1.4300   31.4599    2.2645 C   0  0  0  0  0  0  0  0  0  0  0  0
   -2.1909   30.7005    2.9903 N   0  0  0  0  0  0  0  0  0  0  0  0
   -3.3792   26.8250    3.1452 S   0  0  0  0  0  0  0  0  0  0  0  0
  1  2  2  3
  2  3  1  0
  2  4  1  0
  4  5  2  3
  5  6  1  0
  6  7  1  0
  7  8  2  3
  7  9  1  0
  9 10  2  3
 10 11  1  0
 11 12  2  0
 12 13  1  0
 13 14  1  0
 14 15  2  0
  9 16  1  0
 16  5  1  0
 15 10  1  0
M  END
>  <Energy>  (266) 
-23.688553788093522

>  <Energy_Delta>  (266) 
3.3307528546679137

>  <std_smi>  (266) 
CC(=O)Nc1nc(C)c(-c2ccccn2)s1

>  <enum_smi>  (266) 
C=C(O)N=c1[nH]c(=C)c(=C2C=CCC=N2)s1

>  <enum_code>  (266) 
T

>  <parent_uuid>  (266) 
38ce1dff-635b-49bf-aa41-0dda23e4ce8b

>  <o3da_score>  (266) 
81.88296813004807

>  <o3da_score_rel>  (266) 
0.32598799338352791

>  <o3da_align>  (266) 
0.61001438426893917

>  <RMSD>  (266) 
6.7900338857493318e-05

>  <CONVERGED>  (266) 
0

>  <ENERGY>  (266) 
-23.688553788325908

$$$$
3c2ed958-9d5c-4639-a842-d3983d8ee6bd
     RDKit          3D

 16 17  0  0  0  0  0  0  0  0999 V2000
   -3.7593   23.4584    4.7286 C   0  0  0  0  0  0  0  0  0  0  0  0
   -4.7760   24.2512    4.3877 C   0  0  0  0  0  0  0  0  0  0  0  0
   -5.6786   23.8266    3.4516 O   0  0  0  0  0  0  0  0  0  0  0  0
   -5.0355   25.4350    5.0017 N   0  0  0  0  0  0  0  0  0  0  0  0
   -4.4517   26.5078    4.5646 C   0  0  0  0  0  0  0  0  0  0  0  0
   -4.6270   27.7384    5.1207 N   0  0  0  0  0  0  0  0  0  0  0  0
   -3.9590   28.8248    4.5994 C   0  0  0  0  0  0  0  0  0  0  0  0
   -4.0729   30.0474    5.1375 C   0  0  0  0  0  0  0  0  0  0  0  0
   -3.1430   28.4236    3.4283 C   0  0  0  0  0  0  0  0  0  0  0  0
   -2.3643   29.1892    2.6163 C   0  0  0  0  0  0  0  0  0  0  0  0
   -1.6139   28.6325    1.4871 C   0  0  0  0  0  0  0  0  0  0  0  0
   -0.8462   29.3717    0.6771 C   0  0  0  0  0  0  0  0  0  0  0  0
   -0.7015   30.8338    0.8730 C   0  0  0  0  0  0  0  0  0  0  0  0
   -1.5116   31.2882    2.0561 C   0  0  0  0  0  0  0  0  0  0  0  0
   -2.2493   30.5512    2.8276 N   0  0  0  0  0  0  0  0  0  0  0  0
   -3.3436   26.6628    3.1992 S   0  0  0  0  0  0  0  0  0  0  0  0
  1  2  2  3
  2  3  1  0
  2  4  1  0
  4  5  2  3
  5  6  1  0
  6  7  1  0
  7  8  2  3
  7  9  1  0
  9 10  2  3
 10 11  1  0
 11 12  2  0
 12 13  1  0
 13 14  1  0
 14 15  2  0
  9 16  1  0
 16  5  1  0
 15 10  1  0
M  END
>  <Energy>  (267) 
-23.688553788034426

>  <Energy_Delta>  (267) 
3.3307528547270095

>  <std_smi>  (267) 
CC(=O)Nc1nc(C)c(-c2ccccn2)s1

>  <enum_smi>  (267) 
C=C(O)N=c1[nH]c(=C)c(=C2C=CCC=N2)s1

>  <enum_code>  (267) 
T

>  <parent_uuid>  (267) 
38ce1dff-635b-49bf-aa41-0dda23e4ce8b

>  <o3da_score>  (267) 
74.64392625099245

>  <o3da_score_rel>  (267) 
0.2971683158600566

>  <o3da_align>  (267) 
0.49654338229665396

>  <RMSD>  (267) 
5.7685472522219155e-05

>  <CONVERGED>  (267) 
0

>  <ENERGY>  (267) 
-23.68855378834051

$$$$
3c2ed958-9d5c-4639-a842-d3983d8ee6bd
     RDKit          3D

 16 17  0  0  0  0  0  0  0  0999 V2000
   -1.1899   32.9022   -0.5802 C   0  0  0  0  0  0  0  0  0  0  0  0
   -0.3502   32.0027   -0.0669 C   0  0  0  0  0  0  0  0  0  0  0  0
    0.9664   32.3244    0.1088 O   0  0  0  0  0  0  0  0  0  0  0  0
   -0.7116   30.7308    0.2404 N   0  0  0  0  0  0  0  0  0  0  0  0
   -1.2365   30.5506    1.4054 C   0  0  0  0  0  0  0  0  0  0  0  0
   -1.4815   31.4120    2.4421 N   0  0  0  0  0  0  0  0  0  0  0  0
   -1.9297   30.8852    3.6354 C   0  0  0  0  0  0  0  0  0  0  0  0
   -1.8118   31.5427    4.7980 C   0  0  0  0  0  0  0  0  0  0  0  0
   -2.3765   29.4916    3.4485 C   0  0  0  0  0  0  0  0  0  0  0  0
   -3.2205   28.7113    4.1723 C   0  0  0  0  0  0  0  0  0  0  0  0
   -3.9840   29.1987    5.3170 C   0  0  0  0  0  0  0  0  0  0  0  0
   -4.6554   28.3854    6.1421 C   0  0  0  0  0  0  0  0  0  0  0  0
   -4.6775   26.9170    5.9197 C   0  0  0  0  0  0  0  0  0  0  0  0
   -4.0916   26.5882    4.5723 C   0  0  0  0  0  0  0  0  0  0  0  0
   -3.4462   27.3980    3.7921 N   0  0  0  0  0  0  0  0  0  0  0  0
   -1.7222   28.9188    1.8850 S   0  0  0  0  0  0  0  0  0  0  0  0
  1  2  2  3
  2  3  1  0
  2  4  1  0
  4  5  2  3
  5  6  1  0
  6  7  1  0
  7  8  2  3
  7  9  1  0
  9 10  2  3
 10 11  1  0
 11 12  2  0
 12 13  1  0
 13 14  1  0
 14 15  2  0
  9 16  1  0
 16  5  1  0
 15 10  1  0
M  END
>  <Energy>  (268) 
-21.625912669460121

>  <Energy_Delta>  (268) 
5.3933939733013148

>  <std_smi>  (268) 
CC(=O)Nc1nc(C)c(-c2ccccn2)s1

>  <enum_smi>  (268) 
C=C(O)N=c1[nH]c(=C)c(=C2C=CCC=N2)s1

>  <enum_code>  (268) 
T

>  <parent_uuid>  (268) 
38ce1dff-635b-49bf-aa41-0dda23e4ce8b

>  <o3da_score>  (268) 
73.342041101040437

>  <o3da_score_rel>  (268) 
0.29198532191955073

>  <o3da_align>  (268) 
0.49438688249434343

>  <RMSD>  (268) 
6.7718431561701324e-05

>  <CONVERGED>  (268) 
0

>  <ENERGY>  (268) 
-21.625912669766283

$$$$
3c2ed958-9d5c-4639-a842-d3983d8ee6bd
     RDKit          3D

 16 17  0  0  0  0  0  0  0  0999 V2000
   -6.5355   25.6696    3.4317 C   0  0  0  0  0  0  0  0  0  0  0  0
   -5.2228   25.5031    3.5951 C   0  0  0  0  0  0  0  0  0  0  0  0
   -4.7594   24.4902    4.3869 O   0  0  0  0  0  0  0  0  0  0  0  0
   -4.2879   26.2527    2.9574 N   0  0  0  0  0  0  0  0  0  0  0  0
   -3.9724   27.3719    3.5171 C   0  0  0  0  0  0  0  0  0  0  0  0
   -4.3847   27.9602    4.6836 N   0  0  0  0  0  0  0  0  0  0  0  0
   -3.7486   29.1136    5.0925 C   0  0  0  0  0  0  0  0  0  0  0  0
   -3.7744   29.5332    6.3657 C   0  0  0  0  0  0  0  0  0  0  0  0
   -2.9440   29.6767    3.9915 C   0  0  0  0  0  0  0  0  0  0  0  0
   -2.4789   30.9331    3.7667 C   0  0  0  0  0  0  0  0  0  0  0  0
   -2.8135   32.0774    4.6089 C   0  0  0  0  0  0  0  0  0  0  0  0
   -2.1995   33.2625    4.5021 C   0  0  0  0  0  0  0  0  0  0  0  0
   -1.1394   33.4871    3.4862 C   0  0  0  0  0  0  0  0  0  0  0  0
   -1.0926   32.3315    2.5222 C   0  0  0  0  0  0  0  0  0  0  0  0
   -1.7000   31.1933    2.6504 N   0  0  0  0  0  0  0  0  0  0  0  0
   -2.7520   28.3996    2.7535 S   0  0  0  0  0  0  0  0  0  0  0  0
  1  2  2  3
  2  3  1  0
  2  4  1  0
  4  5  2  3
  5  6  1  0
  6  7  1  0
  7  8  2  3
  7  9  1  0
  9 10  2  3
 10 11  1  0
 11 12  2  0
 12 13  1  0
 13 14  1  0
 14 15  2  0
  9 16  1  0
 16  5  1  0
 15 10  1  0
M  END
>  <Energy>  (269) 
-21.625912669453427

>  <Energy_Delta>  (269) 
5.3933939733080081

>  <std_smi>  (269) 
CC(=O)Nc1nc(C)c(-c2ccccn2)s1

>  <enum_smi>  (269) 
C=C(O)N=c1[nH]c(=C)c(=C2C=CCC=N2)s1

>  <enum_code>  (269) 
T

>  <parent_uuid>  (269) 
38ce1dff-635b-49bf-aa41-0dda23e4ce8b

>  <o3da_score>  (269) 
73.035892363995259

>  <o3da_score_rel>  (269) 
0.29076649931522414

>  <o3da_align>  (269) 
0.35821885801171055

>  <RMSD>  (269) 
7.3192562239055348e-05

>  <CONVERGED>  (269) 
0

>  <ENERGY>  (269) 
-21.625912669697122

$$$$
3c2ed958-9d5c-4639-a842-d3983d8ee6bd
     RDKit          3D

 16 17  0  0  0  0  0  0  0  0999 V2000
    1.3406   32.0731    1.0556 C   0  0  0  0  0  0  0  0  0  0  0  0
    0.0956   32.1201    0.5808 C   0  0  0  0  0  0  0  0  0  0  0  0
   -0.4712   33.3261    0.2775 O   0  0  0  0  0  0  0  0  0  0  0  0
   -0.6442   31.0149    0.3087 N   0  0  0  0  0  0  0  0  0  0  0  0
   -1.2973   30.5054    1.2983 C   0  0  0  0  0  0  0  0  0  0  0  0
   -1.4219   30.8895    2.6074 N   0  0  0  0  0  0  0  0  0  0  0  0
   -2.3211   30.2110    3.4031 C   0  0  0  0  0  0  0  0  0  0  0  0
   -2.8161   30.7361    4.5332 C   0  0  0  0  0  0  0  0  0  0  0  0
   -2.7471   28.9594    2.7484 C   0  0  0  0  0  0  0  0  0  0  0  0
   -3.2753   27.8136    3.2520 C   0  0  0  0  0  0  0  0  0  0  0  0
   -3.4346   27.5615    4.6809 C   0  0  0  0  0  0  0  0  0  0  0  0
   -4.1322   26.5250    5.1625 C   0  0  0  0  0  0  0  0  0  0  0  0
   -4.7758   25.5450    4.2505 C   0  0  0  0  0  0  0  0  0  0  0  0
   -4.3057   25.7661    2.8374 C   0  0  0  0  0  0  0  0  0  0  0  0
   -3.6285   26.7808    2.3983 N   0  0  0  0  0  0  0  0  0  0  0  0
   -2.2948   29.0713    1.0211 S   0  0  0  0  0  0  0  0  0  0  0  0
  1  2  2  3
  2  3  1  0
  2  4  1  0
  4  5  2  3
  5  6  1  0
  6  7  1  0
  7  8  2  3
  7  9  1  0
  9 10  2  3
 10 11  1  0
 11 12  2  0
 12 13  1  0
 13 14  1  0
 14 15  2  0
  9 16  1  0
 16  5  1  0
 15 10  1  0
M  END
>  <Energy>  (270) 
-19.552451779174344

>  <Energy_Delta>  (270) 
7.4668548635870913

>  <std_smi>  (270) 
CC(=O)Nc1nc(C)c(-c2ccccn2)s1

>  <enum_smi>  (270) 
C=C(O)N=c1[nH]c(=C)c(=C2C=CCC=N2)s1

>  <enum_code>  (270) 
T

>  <parent_uuid>  (270) 
38ce1dff-635b-49bf-aa41-0dda23e4ce8b

>  <o3da_score>  (270) 
84.210768709506752

>  <o3da_score_rel>  (270) 
0.33525530571018358

>  <o3da_align>  (270) 
0.40311204349173468

>  <RMSD>  (270) 
0.5067697415035165

>  <CONVERGED>  (270) 
0

>  <ENERGY>  (270) 
-21.625912669695154

$$$$
3c2ed958-9d5c-4639-a842-d3983d8ee6bd
     RDKit          3D

 16 17  0  0  0  0  0  0  0  0999 V2000
   -0.8080   33.0277   -0.0650 C   0  0  0  0  0  0  0  0  0  0  0  0
   -0.0322   32.1170    0.5236 C   0  0  0  0  0  0  0  0  0  0  0  0
    1.1512   32.4971    1.0918 O   0  0  0  0  0  0  0  0  0  0  0  0
   -0.3156   30.7896    0.5394 N   0  0  0  0  0  0  0  0  0  0  0  0
   -1.0973   30.3823    1.4819 C   0  0  0  0  0  0  0  0  0  0  0  0
   -1.6939   31.0406    2.5247 N   0  0  0  0  0  0  0  0  0  0  0  0
   -2.3704   30.2932    3.4660 C   0  0  0  0  0  0  0  0  0  0  0  0
   -2.6279   30.7557    4.6979 C   0  0  0  0  0  0  0  0  0  0  0  0
   -2.5958   28.9219    2.9707 C   0  0  0  0  0  0  0  0  0  0  0  0
   -3.5041   27.9749    3.3222 C   0  0  0  0  0  0  0  0  0  0  0  0
   -4.5844   28.2109    4.2751 C   0  0  0  0  0  0  0  0  0  0  0  0
   -5.3491   27.2270    4.7650 C   0  0  0  0  0  0  0  0  0  0  0  0
   -5.1492   25.8178    4.3402 C   0  0  0  0  0  0  0  0  0  0  0  0
   -4.2053   25.7589    3.1686 C   0  0  0  0  0  0  0  0  0  0  0  0
   -3.4767   26.7301    2.7139 N   0  0  0  0  0  0  0  0  0  0  0  0
   -1.5038   28.6635    1.5774 S   0  0  0  0  0  0  0  0  0  0  0  0
  1  2  2  3
  2  3  1  0
  2  4  1  0
  4  5  2  3
  5  6  1  0
  6  7  1  0
  7  8  2  3
  7  9  1  0
  9 10  2  3
 10 11  1  0
 11 12  2  0
 12 13  1  0
 13 14  1  0
 14 15  2  0
  9 16  1  0
 16  5  1  0
 15 10  1  0
M  END
>  <Energy>  (271) 
-19.552451779065397

>  <Energy_Delta>  (271) 
7.4668548636960388

>  <std_smi>  (271) 
CC(=O)Nc1nc(C)c(-c2ccccn2)s1

>  <enum_smi>  (271) 
C=C(O)N=c1[nH]c(=C)c(=C2C=CCC=N2)s1

>  <enum_code>  (271) 
T

>  <parent_uuid>  (271) 
38ce1dff-635b-49bf-aa41-0dda23e4ce8b

>  <o3da_score>  (271) 
86.483608826768716

>  <o3da_score_rel>  (271) 
0.34430381245130548

>  <o3da_align>  (271) 
0.38040945175771279

>  <RMSD>  (271) 
0.50676770860895304

>  <CONVERGED>  (271) 
0

>  <ENERGY>  (271) 
-21.625912669753308

$$$$
3c2ed958-9d5c-4639-a842-d3983d8ee6bd
     RDKit          3D

 16 17  0  0  0  0  0  0  0  0999 V2000
   -1.4516   32.9278   -0.1654 C   0  0  0  0  0  0  0  0  0  0  0  0
   -0.5894   32.2444    0.5880 C   0  0  0  0  0  0  0  0  0  0  0  0
    0.3955   32.9134    1.2618 O   0  0  0  0  0  0  0  0  0  0  0  0
   -0.5632   30.8870    0.6441 N   0  0  0  0  0  0  0  0  0  0  0  0
   -1.3166   30.2820    1.5101 C   0  0  0  0  0  0  0  0  0  0  0  0
   -1.3841   28.9204    1.6190 N   0  0  0  0  0  0  0  0  0  0  0  0
   -2.3193   28.3748    2.4715 C   0  0  0  0  0  0  0  0  0  0  0  0
   -2.7547   27.1128    2.3473 C   0  0  0  0  0  0  0  0  0  0  0  0
   -2.8489   29.4087    3.3799 C   0  0  0  0  0  0  0  0  0  0  0  0
   -3.4540   29.3194    4.5926 C   0  0  0  0  0  0  0  0  0  0  0  0
   -3.6124   28.0652    5.3223 C   0  0  0  0  0  0  0  0  0  0  0  0
   -4.3799   27.9518    6.4137 C   0  0  0  0  0  0  0  0  0  0  0  0
   -5.1079   29.1241    6.9633 C   0  0  0  0  0  0  0  0  0  0  0  0
   -4.6404   30.3867    6.2894 C   0  0  0  0  0  0  0  0  0  0  0  0
   -3.8941   30.4672    5.2322 N   0  0  0  0  0  0  0  0  0  0  0  0
   -2.4158   31.0024    2.6930 S   0  0  0  0  0  0  0  0  0  0  0  0
  1  2  2  3
  2  3  1  0
  2  4  1  0
  4  5  2  3
  5  6  1  0
  6  7  1  0
  7  8  2  3
  7  9  1  0
  9 10  2  3
 10 11  1  0
 11 12  2  0
 12 13  1  0
 13 14  1  0
 14 15  2  0
  9 16  1  0
 16  5  1  0
 15 10  1  0
M  END
>  <Energy>  (272) 
-18.403142990879822

>  <Energy_Delta>  (272) 
8.6161636518816138

>  <std_smi>  (272) 
CC(=O)Nc1nc(C)c(-c2ccccn2)s1

>  <enum_smi>  (272) 
C=C(O)N=c1[nH]c(=C)c(=C2C=CCC=N2)s1

>  <enum_code>  (272) 
T

>  <parent_uuid>  (272) 
38ce1dff-635b-49bf-aa41-0dda23e4ce8b

>  <o3da_score>  (272) 
66.734352777408773

>  <o3da_score_rel>  (272) 
0.26567915463329184

>  <o3da_align>  (272) 
0.52121964811385746

>  <RMSD>  (272) 
7.29950320935384e-05

>  <CONVERGED>  (272) 
0

>  <ENERGY>  (272) 
-18.403142991452984

$$$$
3c2ed958-9d5c-4639-a842-d3983d8ee6bd
     RDKit          3D

 16 17  0  0  0  0  0  0  0  0999 V2000
    0.4433   32.8463    1.2519 C   0  0  0  0  0  0  0  0  0  0  0  0
   -0.5504   32.2247    0.6160 C   0  0  0  0  0  0  0  0  0  0  0  0
   -1.4418   32.9559   -0.1203 O   0  0  0  0  0  0  0  0  0  0  0  0
   -0.6716   30.8723    0.5668 N   0  0  0  0  0  0  0  0  0  0  0  0
   -1.3189   30.2674    1.5149 C   0  0  0  0  0  0  0  0  0  0  0  0
   -1.4650   28.9088    1.5704 N   0  0  0  0  0  0  0  0  0  0  0  0
   -2.0460   28.3553    2.6908 C   0  0  0  0  0  0  0  0  0  0  0  0
   -1.8613   27.0733    3.0367 C   0  0  0  0  0  0  0  0  0  0  0  0
   -2.7236   29.3976    3.4839 C   0  0  0  0  0  0  0  0  0  0  0  0
   -3.7220   29.3257    4.4020 C   0  0  0  0  0  0  0  0  0  0  0  0
   -4.4334   28.0919    4.7220 C   0  0  0  0  0  0  0  0  0  0  0  0
   -5.2711   27.9851    5.7611 C   0  0  0  0  0  0  0  0  0  0  0  0
   -5.5432   29.1452    6.6480 C   0  0  0  0  0  0  0  0  0  0  0  0
   -4.9711   30.4017    6.0473 C   0  0  0  0  0  0  0  0  0  0  0  0
   -4.1617   30.4760    5.0372 N   0  0  0  0  0  0  0  0  0  0  0  0
   -2.1149   30.9829    2.9223 S   0  0  0  0  0  0  0  0  0  0  0  0
  1  2  2  3
  2  3  1  0
  2  4  1  0
  4  5  2  3
  5  6  1  0
  6  7  1  0
  7  8  2  3
  7  9  1  0
  9 10  2  3
 10 11  1  0
 11 12  2  0
 12 13  1  0
 13 14  1  0
 14 15  2  0
  9 16  1  0
 16  5  1  0
 15 10  1  0
M  END
>  <Energy>  (273) 
-18.403142989973421

>  <Energy_Delta>  (273) 
8.6161636527880141

>  <std_smi>  (273) 
CC(=O)Nc1nc(C)c(-c2ccccn2)s1

>  <enum_smi>  (273) 
C=C(O)N=c1[nH]c(=C)c(=C2C=CCC=N2)s1

>  <enum_code>  (273) 
T

>  <parent_uuid>  (273) 
38ce1dff-635b-49bf-aa41-0dda23e4ce8b

>  <o3da_score>  (273) 
73.312234189512921

>  <o3da_score_rel>  (273) 
0.29186665627393832

>  <o3da_align>  (273) 
0.50050648940018416

>  <RMSD>  (273) 
5.1484061819940718e-05

>  <CONVERGED>  (273) 
0

>  <ENERGY>  (273) 
-18.403142991453002

$$$$
3c2ed958-9d5c-4639-a842-d3983d8ee6bd
     RDKit          3D

 16 17  0  0  0  0  0  0  0  0999 V2000
    0.3141   32.8641    1.5364 C   0  0  0  0  0  0  0  0  0  0  0  0
   -0.4948   32.2248    0.6906 C   0  0  0  0  0  0  0  0  0  0  0  0
   -1.1831   32.9375   -0.2527 O   0  0  0  0  0  0  0  0  0  0  0  0
   -0.5980   30.8709    0.6359 N   0  0  0  0  0  0  0  0  0  0  0  0
   -1.4181   30.2726    1.4444 C   0  0  0  0  0  0  0  0  0  0  0  0
   -1.5829   28.9159    1.4734 N   0  0  0  0  0  0  0  0  0  0  0  0
   -2.5766   28.3870    2.2676 C   0  0  0  0  0  0  0  0  0  0  0  0
   -3.0724   27.1568    2.0721 C   0  0  0  0  0  0  0  0  0  0  0  0
   -3.0816   29.4084    3.2040 C   0  0  0  0  0  0  0  0  0  0  0  0
   -3.7421   29.3015    4.3861 C   0  0  0  0  0  0  0  0  0  0  0  0
   -4.0047   28.0279    5.0492 C   0  0  0  0  0  0  0  0  0  0  0  0
   -4.8256   27.9122    6.1007 C   0  0  0  0  0  0  0  0  0  0  0  0
   -5.5088   29.1003    6.6733 C   0  0  0  0  0  0  0  0  0  0  0  0
   -4.9375   30.3613    6.0812 C   0  0  0  0  0  0  0  0  0  0  0  0
   -4.1413   30.4439    5.0612 N   0  0  0  0  0  0  0  0  0  0  0  0
   -2.5247   31.0031    2.6143 S   0  0  0  0  0  0  0  0  0  0  0  0
  1  2  2  3
  2  3  1  0
  2  4  1  0
  4  5  2  3
  5  6  1  0
  6  7  1  0
  7  8  2  3
  7  9  1  0
  9 10  2  3
 10 11  1  0
 11 12  2  0
 12 13  1  0
 13 14  1  0
 14 15  2  0
  9 16  1  0
 16  5  1  0
 15 10  1  0
M  END
>  <Energy>  (274) 
-14.151530729709338

>  <Energy_Delta>  (274) 
12.867775913052098

>  <std_smi>  (274) 
CC(=O)Nc1nc(C)c(-c2ccccn2)s1

>  <enum_smi>  (274) 
C=C(O)N=c1[nH]c(=C)c(=C2C=CCC=N2)s1

>  <enum_code>  (274) 
T

>  <parent_uuid>  (274) 
38ce1dff-635b-49bf-aa41-0dda23e4ce8b

>  <o3da_score>  (274) 
70.811572681931068

>  <o3da_score_rel>  (274) 
0.28191115947644385

>  <o3da_align>  (274) 
0.57323106348074349

>  <RMSD>  (274) 
0.13391192839605418

>  <CONVERGED>  (274) 
0

>  <ENERGY>  (274) 
-18.249809601263795

$$$$
bc537072-3a9f-4d68-b111-07a23b44e155
     RDKit          3D

 16 17  0  0  0  0  0  0  0  0999 V2000
   -3.9448   25.8123    6.0068 C   0  0  0  0  0  0  0  0  0  0  0  0
   -4.5576   26.4318    4.9977 C   0  0  0  0  0  0  0  0  0  0  0  0
   -5.2902   25.7064    4.1005 O   0  0  0  0  0  0  0  0  0  0  0  0
   -4.5552   27.7801    4.8388 N   0  0  0  0  0  0  0  0  0  0  0  0
   -3.5637   28.2694    4.1772 C   0  0  0  0  0  0  0  0  0  0  0  0
   -2.4793   27.6996    3.5628 N   0  0  0  0  0  0  0  0  0  0  0  0
   -1.6154   28.5549    2.8972 C   0  0  0  0  0  0  0  0  0  0  0  0
   -0.4189   27.9831    2.2080 C   0  0  0  0  0  0  0  0  0  0  0  0
   -1.9796   29.8543    2.9883 C   0  0  0  0  0  0  0  0  0  0  0  0
   -1.3533   31.0365    2.3779 C   0  0  0  0  0  0  0  0  0  0  0  0
   -1.3465   32.2836    3.0029 C   0  0  0  0  0  0  0  0  0  0  0  0
   -0.7432   33.3649    2.3624 C   0  0  0  0  0  0  0  0  0  0  0  0
   -0.1625   33.1799    1.1158 C   0  0  0  0  0  0  0  0  0  0  0  0
   -0.2068   31.9143    0.5605 C   0  0  0  0  0  0  0  0  0  0  0  0
   -0.7814   30.8481    1.1605 N   0  0  0  0  0  0  0  0  0  0  0  0
   -3.4682   30.0302    3.9242 S   0  0  0  0  0  0  0  0  0  0  0  0
  1  2  2  3
  2  3  1  0
  2  4  1  0
  4  5  2  3
  5  6  1  0
  6  7  1  0
  7  8  1  0
  7  9  2  0
  9 10  1  0
 10 11  2  0
 11 12  1  0
 12 13  2  0
 13 14  1  0
 14 15  2  0
  9 16  1  0
 16  5  1  0
 15 10  1  0
M  END
>  <Energy>  (275) 
-23.420530089628461

>  <Energy_Delta>  (275) 
0

>  <std_smi>  (275) 
CC(=O)Nc1nc(C)c(-c2ccccn2)s1

>  <enum_smi>  (275) 
C=C(O)N=c1[nH]c(C)c(-c2ccccn2)s1

>  <enum_code>  (275) 
T

>  <parent_uuid>  (275) 
38ce1dff-635b-49bf-aa41-0dda23e4ce8b

>  <o3da_score>  (275) 
68.333946819794392

>  <o3da_score_rel>  (275) 
0.27204737093045095

>  <o3da_align>  (275) 
0.52113127729714226

>  <RMSD>  (275) 
6.0413593157622736e-05

>  <CONVERGED>  (275) 
0

>  <ENERGY>  (275) 
-23.420530089813511

$$$$
bc537072-3a9f-4d68-b111-07a23b44e155
     RDKit          3D

 16 17  0  0  0  0  0  0  0  0999 V2000
   -4.9265   26.8487    4.5552 C   0  0  0  0  0  0  0  0  0  0  0  0
   -3.7145   27.2774    4.9088 C   0  0  0  0  0  0  0  0  0  0  0  0
   -2.8078   26.3965    5.4283 O   0  0  0  0  0  0  0  0  0  0  0  0
   -3.3366   28.5799    4.8461 N   0  0  0  0  0  0  0  0  0  0  0  0
   -2.8478   28.9729    3.7206 C   0  0  0  0  0  0  0  0  0  0  0  0
   -2.6030   28.3320    2.5342 N   0  0  0  0  0  0  0  0  0  0  0  0
   -2.0197   29.0824    1.5256 C   0  0  0  0  0  0  0  0  0  0  0  0
   -1.7293   28.4293    0.2131 C   0  0  0  0  0  0  0  0  0  0  0  0
   -1.8055   30.3706    1.8779 C   0  0  0  0  0  0  0  0  0  0  0  0
   -1.1658   31.4473    1.1074 C   0  0  0  0  0  0  0  0  0  0  0  0
   -1.5575   32.7812    1.2223 C   0  0  0  0  0  0  0  0  0  0  0  0
   -0.9005   33.7529    0.4690 C   0  0  0  0  0  0  0  0  0  0  0  0
    0.1305   33.3746   -0.3793 C   0  0  0  0  0  0  0  0  0  0  0  0
    0.4608   32.0333   -0.4414 C   0  0  0  0  0  0  0  0  0  0  0  0
   -0.1614   31.0704    0.2745 N   0  0  0  0  0  0  0  0  0  0  0  0
   -2.3318   30.6683    3.5384 S   0  0  0  0  0  0  0  0  0  0  0  0
  1  2  2  3
  2  3  1  0
  2  4  1  0
  4  5  2  3
  5  6  1  0
  6  7  1  0
  7  8  1  0
  7  9  2  0
  9 10  1  0
 10 11  2  0
 11 12  1  0
 12 13  2  0
 13 14  1  0
 14 15  2  0
  9 16  1  0
 16  5  1  0
 15 10  1  0
M  END
>  <Energy>  (276) 
-23.420530089044426

>  <Energy_Delta>  (276) 
5.8403415437169315e-10

>  <std_smi>  (276) 
CC(=O)Nc1nc(C)c(-c2ccccn2)s1

>  <enum_smi>  (276) 
C=C(O)N=c1[nH]c(C)c(-c2ccccn2)s1

>  <enum_code>  (276) 
T

>  <parent_uuid>  (276) 
38ce1dff-635b-49bf-aa41-0dda23e4ce8b

>  <o3da_score>  (276) 
65.810834632839061

>  <o3da_score_rel>  (276) 
0.26200249471637949

>  <o3da_align>  (276) 
0.51240191818178804

>  <RMSD>  (276) 
5.7720936117406129e-05

>  <CONVERGED>  (276) 
0

>  <ENERGY>  (276) 
-23.420530089801094

$$$$
bc537072-3a9f-4d68-b111-07a23b44e155
     RDKit          3D

 16 17  0  0  0  0  0  0  0  0999 V2000
   -1.5579   24.3306    5.2734 C   0  0  0  0  0  0  0  0  0  0  0  0
   -2.7657   24.8768    5.1289 C   0  0  0  0  0  0  0  0  0  0  0  0
   -3.7820   24.1419    4.5859 O   0  0  0  0  0  0  0  0  0  0  0  0
   -3.0779   26.1253    5.5616 N   0  0  0  0  0  0  0  0  0  0  0  0
   -2.8100   27.0898    4.7502 C   0  0  0  0  0  0  0  0  0  0  0  0
   -2.2757   27.1285    3.4890 N   0  0  0  0  0  0  0  0  0  0  0  0
   -2.1227   28.3787    2.9109 C   0  0  0  0  0  0  0  0  0  0  0  0
   -1.5525   28.4737    1.5327 C   0  0  0  0  0  0  0  0  0  0  0  0
   -2.5551   29.3868    3.7025 C   0  0  0  0  0  0  0  0  0  0  0  0
   -2.5089   30.8375    3.4632 C   0  0  0  0  0  0  0  0  0  0  0  0
   -3.4829   31.7074    3.9542 C   0  0  0  0  0  0  0  0  0  0  0  0
   -3.3705   33.0732    3.6982 C   0  0  0  0  0  0  0  0  0  0  0  0
   -2.2919   33.5412    2.9614 C   0  0  0  0  0  0  0  0  0  0  0  0
   -1.3681   32.6187    2.5063 C   0  0  0  0  0  0  0  0  0  0  0  0
   -1.4545   31.2896    2.7364 N   0  0  0  0  0  0  0  0  0  0  0  0
   -3.1708   28.7648    5.2380 S   0  0  0  0  0  0  0  0  0  0  0  0
  1  2  2  3
  2  3  1  0
  2  4  1  0
  4  5  2  3
  5  6  1  0
  6  7  1  0
  7  8  1  0
  7  9  2  0
  9 10  1  0
 10 11  2  0
 11 12  1  0
 12 13  2  0
 13 14  1  0
 14 15  2  0
  9 16  1  0
 16  5  1  0
 15 10  1  0
M  END
>  <Energy>  (277) 
-23.317397485977132

>  <Energy_Delta>  (277) 
0.10313260365132848

>  <std_smi>  (277) 
CC(=O)Nc1nc(C)c(-c2ccccn2)s1

>  <enum_smi>  (277) 
C=C(O)N=c1[nH]c(C)c(-c2ccccn2)s1

>  <enum_code>  (277) 
T

>  <parent_uuid>  (277) 
38ce1dff-635b-49bf-aa41-0dda23e4ce8b

>  <o3da_score>  (277) 
74.987903327379783

>  <o3da_score_rel>  (277) 
0.29853773857960614

>  <o3da_align>  (277) 
0.42599433350795091

>  <RMSD>  (277) 
6.4120858433135817e-05

>  <CONVERGED>  (277) 
0

>  <ENERGY>  (277) 
-23.317397486142667

$$$$
bc537072-3a9f-4d68-b111-07a23b44e155
     RDKit          3D

 16 17  0  0  0  0  0  0  0  0999 V2000
   -5.2058   25.6602    4.0696 C   0  0  0  0  0  0  0  0  0  0  0  0
   -4.6212   26.4510    4.9701 C   0  0  0  0  0  0  0  0  0  0  0  0
   -4.0975   25.9093    6.1103 O   0  0  0  0  0  0  0  0  0  0  0  0
   -4.5731   27.8032    4.8579 N   0  0  0  0  0  0  0  0  0  0  0  0
   -3.5987   28.2799    4.1626 C   0  0  0  0  0  0  0  0  0  0  0  0
   -2.5489   27.6966    3.5027 N   0  0  0  0  0  0  0  0  0  0  0  0
   -1.6770   28.5445    2.8381 C   0  0  0  0  0  0  0  0  0  0  0  0
   -0.5109   27.9576    2.1105 C   0  0  0  0  0  0  0  0  0  0  0  0
   -2.0039   29.8507    2.9675 C   0  0  0  0  0  0  0  0  0  0  0  0
   -1.3597   31.0304    2.3698 C   0  0  0  0  0  0  0  0  0  0  0  0
   -1.3211   32.2675    3.0135 C   0  0  0  0  0  0  0  0  0  0  0  0
   -0.7027   33.3465    2.3835 C   0  0  0  0  0  0  0  0  0  0  0  0
   -0.1386   33.1696    1.1281 C   0  0  0  0  0  0  0  0  0  0  0  0
   -0.2141   31.9140    0.5541 C   0  0  0  0  0  0  0  0  0  0  0  0
   -0.8038   30.8504    1.1438 N   0  0  0  0  0  0  0  0  0  0  0  0
   -3.4622   30.0431    3.9474 S   0  0  0  0  0  0  0  0  0  0  0  0
  1  2  2  3
  2  3  1  0
  2  4  1  0
  4  5  2  3
  5  6  1  0
  6  7  1  0
  7  8  1  0
  7  9  2  0
  9 10  1  0
 10 11  2  0
 11 12  1  0
 12 13  2  0
 13 14  1  0
 14 15  2  0
  9 16  1  0
 16  5  1  0
 15 10  1  0
M  END
>  <Energy>  (278) 
-23.317397485700063

>  <Energy_Delta>  (278) 
0.10313260392839751

>  <std_smi>  (278) 
CC(=O)Nc1nc(C)c(-c2ccccn2)s1

>  <enum_smi>  (278) 
C=C(O)N=c1[nH]c(C)c(-c2ccccn2)s1

>  <enum_code>  (278) 
T

>  <parent_uuid>  (278) 
38ce1dff-635b-49bf-aa41-0dda23e4ce8b

>  <o3da_score>  (278) 
68.200988065038487

>  <o3da_score_rel>  (278) 
0.27151804280940861

>  <o3da_align>  (278) 
0.51272700892025513

>  <RMSD>  (278) 
7.1238896930630107e-05

>  <CONVERGED>  (278) 
0

>  <ENERGY>  (278) 
-23.31739748618801

$$$$
bc537072-3a9f-4d68-b111-07a23b44e155
     RDKit          3D

 16 17  0  0  0  0  0  0  0  0999 V2000
   -5.3654   24.7885    3.3816 C   0  0  0  0  0  0  0  0  0  0  0  0
   -4.2493   25.1030    4.0398 C   0  0  0  0  0  0  0  0  0  0  0  0
   -3.2116   24.2145    4.0794 O   0  0  0  0  0  0  0  0  0  0  0  0
   -4.0996   26.2518    4.7475 N   0  0  0  0  0  0  0  0  0  0  0  0
   -3.6715   27.2713    4.0861 C   0  0  0  0  0  0  0  0  0  0  0  0
   -3.3057   27.4485    2.7773 N   0  0  0  0  0  0  0  0  0  0  0  0
   -2.8472   28.7067    2.4199 C   0  0  0  0  0  0  0  0  0  0  0  0
   -2.4329   28.9511    1.0050 C   0  0  0  0  0  0  0  0  0  0  0  0
   -2.8615   29.5883    3.4455 C   0  0  0  0  0  0  0  0  0  0  0  0
   -2.4063   30.9864    3.4712 C   0  0  0  0  0  0  0  0  0  0  0  0
   -3.0224   31.9571    4.2613 C   0  0  0  0  0  0  0  0  0  0  0  0
   -2.5324   33.2622    4.2450 C   0  0  0  0  0  0  0  0  0  0  0  0
   -1.4414   33.5696    3.4446 C   0  0  0  0  0  0  0  0  0  0  0  0
   -0.8853   32.5548    2.6877 C   0  0  0  0  0  0  0  0  0  0  0  0
   -1.3419   31.2827    2.6814 N   0  0  0  0  0  0  0  0  0  0  0  0
   -3.4516   28.8265    4.9268 S   0  0  0  0  0  0  0  0  0  0  0  0
  1  2  2  3
  2  3  1  0
  2  4  1  0
  4  5  2  3
  5  6  1  0
  6  7  1  0
  7  8  1  0
  7  9  2  0
  9 10  1  0
 10 11  2  0
 11 12  1  0
 12 13  2  0
 13 14  1  0
 14 15  2  0
  9 16  1  0
 16  5  1  0
 15 10  1  0
M  END
>  <Energy>  (279) 
-21.145801495844257

>  <Energy_Delta>  (279) 
2.2747285937842037

>  <std_smi>  (279) 
CC(=O)Nc1nc(C)c(-c2ccccn2)s1

>  <enum_smi>  (279) 
C=C(O)N=c1[nH]c(C)c(-c2ccccn2)s1

>  <enum_code>  (279) 
T

>  <parent_uuid>  (279) 
38ce1dff-635b-49bf-aa41-0dda23e4ce8b

>  <o3da_score>  (279) 
66.937844219135172

>  <o3da_score_rel>  (279) 
0.26648928362927243

>  <o3da_align>  (279) 
0.3930970000271421

>  <RMSD>  (279) 
0.58079908970968575

>  <CONVERGED>  (279) 
0

>  <ENERGY>  (279) 
-23.4205300897626

$$$$
bc537072-3a9f-4d68-b111-07a23b44e155
     RDKit          3D

 16 17  0  0  0  0  0  0  0  0999 V2000
    1.1961   32.1439    1.0247 C   0  0  0  0  0  0  0  0  0  0  0  0
   -0.0291   32.0536    0.5067 C   0  0  0  0  0  0  0  0  0  0  0  0
   -0.6258   33.1636   -0.0223 O   0  0  0  0  0  0  0  0  0  0  0  0
   -0.7129   30.8849    0.4084 N   0  0  0  0  0  0  0  0  0  0  0  0
   -1.4187   30.5551    1.4346 C   0  0  0  0  0  0  0  0  0  0  0  0
   -1.6495   31.1600    2.6425 N   0  0  0  0  0  0  0  0  0  0  0  0
   -2.5174   30.5158    3.5100 C   0  0  0  0  0  0  0  0  0  0  0  0
   -2.8050   31.1357    4.8390 C   0  0  0  0  0  0  0  0  0  0  0  0
   -2.9880   29.3465    3.0194 C   0  0  0  0  0  0  0  0  0  0  0  0
   -3.9585   28.4160    3.6151 C   0  0  0  0  0  0  0  0  0  0  0  0
   -3.8866   27.0367    3.4195 C   0  0  0  0  0  0  0  0  0  0  0  0
   -4.8464   26.2132    4.0060 C   0  0  0  0  0  0  0  0  0  0  0  0
   -5.8546   26.7814    4.7716 C   0  0  0  0  0  0  0  0  0  0  0  0
   -5.8590   28.1559    4.9220 C   0  0  0  0  0  0  0  0  0  0  0  0
   -4.9396   28.9773    4.3681 N   0  0  0  0  0  0  0  0  0  0  0  0
   -2.3445   29.0334    1.4036 S   0  0  0  0  0  0  0  0  0  0  0  0
  1  2  2  3
  2  3  1  0
  2  4  1  0
  4  5  2  3
  5  6  1  0
  6  7  1  0
  7  8  1  0
  7  9  2  0
  9 10  1  0
 10 11  2  0
 11 12  1  0
 12 13  2  0
 13 14  1  0
 14 15  2  0
  9 16  1  0
 16  5  1  0
 15 10  1  0
M  END
>  <Energy>  (280) 
-21.145801494977565

>  <Energy_Delta>  (280) 
2.2747285946508953

>  <std_smi>  (280) 
CC(=O)Nc1nc(C)c(-c2ccccn2)s1

>  <enum_smi>  (280) 
C=C(O)N=c1[nH]c(C)c(-c2ccccn2)s1

>  <enum_code>  (280) 
T

>  <parent_uuid>  (280) 
38ce1dff-635b-49bf-aa41-0dda23e4ce8b

>  <o3da_score>  (280) 
87.709167905541179

>  <o3da_score_rel>  (280) 
0.34918294121258192

>  <o3da_align>  (280) 
0.36620969536179437

>  <RMSD>  (280) 
0.5807860344182284

>  <CONVERGED>  (280) 
0

>  <ENERGY>  (280) 
-23.420530089812253

$$$$
bc537072-3a9f-4d68-b111-07a23b44e155
     RDKit          3D

 16 17  0  0  0  0  0  0  0  0999 V2000
   -0.3817   31.3112    3.8032 C   0  0  0  0  0  0  0  0  0  0  0  0
   -1.3587   30.9650    2.9643 C   0  0  0  0  0  0  0  0  0  0  0  0
   -1.1040   30.8995    1.6219 O   0  0  0  0  0  0  0  0  0  0  0  0
   -2.6439   30.7710    3.3593 N   0  0  0  0  0  0  0  0  0  0  0  0
   -2.9996   29.5910    3.7587 C   0  0  0  0  0  0  0  0  0  0  0  0
   -4.2543   29.2694    4.1996 N   0  0  0  0  0  0  0  0  0  0  0  0
   -4.4771   27.9557    4.5763 C   0  0  0  0  0  0  0  0  0  0  0  0
   -5.8285   27.5649    5.0804 C   0  0  0  0  0  0  0  0  0  0  0  0
   -3.3784   27.1771    4.4532 C   0  0  0  0  0  0  0  0  0  0  0  0
   -3.2322   25.7346    4.6995 C   0  0  0  0  0  0  0  0  0  0  0  0
   -2.0467   25.1748    5.1761 C   0  0  0  0  0  0  0  0  0  0  0  0
   -1.9746   23.7971    5.3768 C   0  0  0  0  0  0  0  0  0  0  0  0
   -3.0825   23.0097    5.0976 C   0  0  0  0  0  0  0  0  0  0  0  0
   -4.2229   23.6365    4.6301 C   0  0  0  0  0  0  0  0  0  0  0  0
   -4.3214   24.9696    4.4300 N   0  0  0  0  0  0  0  0  0  0  0  0
   -2.0117   28.1100    3.8341 S   0  0  0  0  0  0  0  0  0  0  0  0
  1  2  2  3
  2  3  1  0
  2  4  1  0
  4  5  2  3
  5  6  1  0
  6  7  1  0
  7  8  1  0
  7  9  2  0
  9 10  1  0
 10 11  2  0
 11 12  1  0
 12 13  2  0
 13 14  1  0
 14 15  2  0
  9 16  1  0
 16  5  1  0
 15 10  1  0
M  END
>  <Energy>  (281) 
-20.023330795371074

>  <Energy_Delta>  (281) 
3.397199294257387

>  <std_smi>  (281) 
CC(=O)Nc1nc(C)c(-c2ccccn2)s1

>  <enum_smi>  (281) 
C=C(O)N=c1[nH]c(C)c(-c2ccccn2)s1

>  <enum_code>  (281) 
T

>  <parent_uuid>  (281) 
38ce1dff-635b-49bf-aa41-0dda23e4ce8b

>  <o3da_score>  (281) 
73.685261507728967

>  <o3da_score_rel>  (281) 
0.29335173222708838

>  <o3da_align>  (281) 
0.68064926552981486

>  <RMSD>  (281) 
6.6403747543874358e-05

>  <CONVERGED>  (281) 
0

>  <ENERGY>  (281) 
-20.02333079553285

$$$$
bc537072-3a9f-4d68-b111-07a23b44e155
     RDKit          3D

 16 17  0  0  0  0  0  0  0  0999 V2000
   -4.5226   26.1083    4.7891 C   0  0  0  0  0  0  0  0  0  0  0  0
   -3.4544   25.7228    4.0902 C   0  0  0  0  0  0  0  0  0  0  0  0
   -2.4162   25.1039    4.7307 O   0  0  0  0  0  0  0  0  0  0  0  0
   -3.3782   25.8154    2.7371 N   0  0  0  0  0  0  0  0  0  0  0  0
   -2.9304   26.9128    2.2138 C   0  0  0  0  0  0  0  0  0  0  0  0
   -2.8225   27.1405    0.8689 N   0  0  0  0  0  0  0  0  0  0  0  0
   -2.3075   28.3630    0.4717 C   0  0  0  0  0  0  0  0  0  0  0  0
   -2.1886   28.6601   -0.9879 C   0  0  0  0  0  0  0  0  0  0  0  0
   -1.9925   29.1669    1.5124 C   0  0  0  0  0  0  0  0  0  0  0  0
   -1.3787   30.5033    1.4986 C   0  0  0  0  0  0  0  0  0  0  0  0
   -1.6802   31.4734    2.4546 C   0  0  0  0  0  0  0  0  0  0  0  0
   -1.0526   32.7164    2.3874 C   0  0  0  0  0  0  0  0  0  0  0  0
   -0.1398   32.9640    1.3721 C   0  0  0  0  0  0  0  0  0  0  0  0
    0.1060   31.9542    0.4601 C   0  0  0  0  0  0  0  0  0  0  0  0
   -0.4904   30.7420    0.4994 N   0  0  0  0  0  0  0  0  0  0  0  0
   -2.3394   28.3706    3.0508 S   0  0  0  0  0  0  0  0  0  0  0  0
  1  2  2  3
  2  3  1  0
  2  4  1  0
  4  5  2  3
  5  6  1  0
  6  7  1  0
  7  8  1  0
  7  9  2  0
  9 10  1  0
 10 11  2  0
 11 12  1  0
 12 13  2  0
 13 14  1  0
 14 15  2  0
  9 16  1  0
 16  5  1  0
 15 10  1  0
M  END
>  <Energy>  (282) 
-20.023330795150692

>  <Energy_Delta>  (282) 
3.3971992944777689

>  <std_smi>  (282) 
CC(=O)Nc1nc(C)c(-c2ccccn2)s1

>  <enum_smi>  (282) 
C=C(O)N=c1[nH]c(C)c(-c2ccccn2)s1

>  <enum_code>  (282) 
T

>  <parent_uuid>  (282) 
38ce1dff-635b-49bf-aa41-0dda23e4ce8b

>  <o3da_score>  (282) 
74.411308785158383

>  <o3da_score_rel>  (282) 
0.29624223193021204

>  <o3da_align>  (282) 
0.33310452780864641

>  <RMSD>  (282) 
6.1981494175994574e-05

>  <CONVERGED>  (282) 
0

>  <ENERGY>  (282) 
-20.023330795507263

$$$$
bc537072-3a9f-4d68-b111-07a23b44e155
     RDKit          3D

 16 17  0  0  0  0  0  0  0  0999 V2000
   -3.6611   23.5946    4.6932 C   0  0  0  0  0  0  0  0  0  0  0  0
   -4.7185   24.3167    4.3207 C   0  0  0  0  0  0  0  0  0  0  0  0
   -5.5599   23.8338    3.3563 O   0  0  0  0  0  0  0  0  0  0  0  0
   -5.0806   25.4775    4.9265 N   0  0  0  0  0  0  0  0  0  0  0  0
   -4.5391   26.5839    4.5248 C   0  0  0  0  0  0  0  0  0  0  0  0
   -4.8033   27.8138    5.0637 N   0  0  0  0  0  0  0  0  0  0  0  0
   -4.1136   28.8956    4.5421 C   0  0  0  0  0  0  0  0  0  0  0  0
   -4.3585   30.2547    5.1129 C   0  0  0  0  0  0  0  0  0  0  0  0
   -3.2913   28.5571    3.5232 C   0  0  0  0  0  0  0  0  0  0  0  0
   -2.3654   29.4056    2.7576 C   0  0  0  0  0  0  0  0  0  0  0  0
   -2.0778   29.1726    1.4125 C   0  0  0  0  0  0  0  0  0  0  0  0
   -1.1816   30.0107    0.7506 C   0  0  0  0  0  0  0  0  0  0  0  0
   -0.5925   31.0593    1.4425 C   0  0  0  0  0  0  0  0  0  0  0  0
   -0.9283   31.2286    2.7730 C   0  0  0  0  0  0  0  0  0  0  0  0
   -1.7962   30.4339    3.4379 N   0  0  0  0  0  0  0  0  0  0  0  0
   -3.3608   26.8199    3.2093 S   0  0  0  0  0  0  0  0  0  0  0  0
  1  2  2  3
  2  3  1  0
  2  4  1  0
  4  5  2  3
  5  6  1  0
  6  7  1  0
  7  8  1  0
  7  9  2  0
  9 10  1  0
 10 11  2  0
 11 12  1  0
 12 13  2  0
 13 14  1  0
 14 15  2  0
  9 16  1  0
 16  5  1  0
 15 10  1  0
M  END
>  <Energy>  (283) 
-19.988146579096465

>  <Energy_Delta>  (283) 
3.4323835105319951

>  <std_smi>  (283) 
CC(=O)Nc1nc(C)c(-c2ccccn2)s1

>  <enum_smi>  (283) 
C=C(O)N=c1[nH]c(C)c(-c2ccccn2)s1

>  <enum_code>  (283) 
T

>  <parent_uuid>  (283) 
38ce1dff-635b-49bf-aa41-0dda23e4ce8b

>  <o3da_score>  (283) 
79.953685043129411

>  <o3da_score_rel>  (283) 
0.31830723709762332

>  <o3da_align>  (283) 
0.62935011350648229

>  <RMSD>  (283) 
6.9634553222537202e-05

>  <CONVERGED>  (283) 
0

>  <ENERGY>  (283) 
-19.988146579279523

$$$$
bc537072-3a9f-4d68-b111-07a23b44e155
     RDKit          3D

 16 17  0  0  0  0  0  0  0  0999 V2000
   -1.0579   23.8765    4.1903 C   0  0  0  0  0  0  0  0  0  0  0  0
   -1.4627   24.4673    5.3152 C   0  0  0  0  0  0  0  0  0  0  0  0
   -0.6017   24.5659    6.3736 O   0  0  0  0  0  0  0  0  0  0  0  0
   -2.7371   24.8915    5.5188 N   0  0  0  0  0  0  0  0  0  0  0  0
   -3.0712   26.0751    5.1112 C   0  0  0  0  0  0  0  0  0  0  0  0
   -4.3239   26.6112    5.2382 N   0  0  0  0  0  0  0  0  0  0  0  0
   -4.5265   27.8788    4.7183 C   0  0  0  0  0  0  0  0  0  0  0  0
   -5.8839   28.4952    4.8198 C   0  0  0  0  0  0  0  0  0  0  0  0
   -3.4060   28.4173    4.1860 C   0  0  0  0  0  0  0  0  0  0  0  0
   -3.2324   29.7063    3.4993 C   0  0  0  0  0  0  0  0  0  0  0  0
   -2.0452   30.4357    3.5689 C   0  0  0  0  0  0  0  0  0  0  0  0
   -1.9459   31.6458    2.8839 C   0  0  0  0  0  0  0  0  0  0  0  0
   -3.0290   32.1007    2.1454 C   0  0  0  0  0  0  0  0  0  0  0  0
   -4.1728   31.3242    2.1255 C   0  0  0  0  0  0  0  0  0  0  0  0
   -4.2975   30.1498    2.7829 N   0  0  0  0  0  0  0  0  0  0  0  0
   -2.0459   27.2974    4.3177 S   0  0  0  0  0  0  0  0  0  0  0  0
  1  2  2  3
  2  3  1  0
  2  4  1  0
  4  5  2  3
  5  6  1  0
  6  7  1  0
  7  8  1  0
  7  9  2  0
  9 10  1  0
 10 11  2  0
 11 12  1  0
 12 13  2  0
 13 14  1  0
 14 15  2  0
  9 16  1  0
 16  5  1  0
 15 10  1  0
M  END
>  <Energy>  (284) 
-19.988146578708626

>  <Energy_Delta>  (284) 
3.4323835109198342

>  <std_smi>  (284) 
CC(=O)Nc1nc(C)c(-c2ccccn2)s1

>  <enum_smi>  (284) 
C=C(O)N=c1[nH]c(C)c(-c2ccccn2)s1

>  <enum_code>  (284) 
T

>  <parent_uuid>  (284) 
38ce1dff-635b-49bf-aa41-0dda23e4ce8b

>  <o3da_score>  (284) 
68.392930736186131

>  <o3da_score_rel>  (284) 
0.27228219447172641

>  <o3da_align>  (284) 
0.50190367449783135

>  <RMSD>  (284) 
6.6050983320212696e-05

>  <CONVERGED>  (284) 
0

>  <ENERGY>  (284) 
-19.988146579350669

$$$$
975d95c3-5d2f-4b40-806b-23a6e7de1ea2
     RDKit          3D

 16 17  0  0  0  0  0  0  0  0999 V2000
    0.9248   32.1022   -0.5739 C   0  0  0  0  0  0  0  0  0  0  0  0
    0.1168   31.9610    0.4792 C   0  0  0  0  0  0  0  0  0  0  0  0
    0.2237   32.8849    1.4932 O   0  0  0  0  0  0  0  0  0  0  0  0
   -0.8066   30.9599    0.6136 N   0  0  0  0  0  0  0  0  0  0  0  0
   -1.6785   30.7143    1.6298 C   0  0  0  0  0  0  0  0  0  0  0  0
   -1.8079   31.4140    2.7144 N   0  0  0  0  0  0  0  0  0  0  0  0
   -2.7852   30.8991    3.5363 C   0  0  0  0  0  0  0  0  0  0  0  0
   -3.1545   31.5634    4.6404 C   0  0  0  0  0  0  0  0  0  0  0  0
   -3.4165   29.5903    3.0925 C   0  0  2  0  0  0  0  0  0  0  0  0
   -3.1718   28.4161    4.0233 C   0  0  0  0  0  0  0  0  0  0  0  0
   -1.8898   28.0840    4.4709 C   0  0  0  0  0  0  0  0  0  0  0  0
   -1.7278   26.9934    5.3215 C   0  0  0  0  0  0  0  0  0  0  0  0
   -2.8407   26.2579    5.7060 C   0  0  0  0  0  0  0  0  0  0  0  0
   -4.0773   26.6459    5.2229 C   0  0  0  0  0  0  0  0  0  0  0  0
   -4.2666   27.7003    4.3987 N   0  0  0  0  0  0  0  0  0  0  0  0
   -2.7023   29.3141    1.4316 S   0  0  0  0  0  0  0  0  0  0  0  0
  1  2  2  3
  2  3  1  0
  2  4  1  0
  4  5  1  0
  5  6  2  0
  6  7  1  0
  7  8  2  3
  7  9  1  0
  9 10  1  1
 10 11  2  0
 11 12  1  0
 12 13  2  0
 13 14  1  0
 14 15  2  0
  9 16  1  0
 16  5  1  0
 15 10  1  0
M  END
>  <Energy>  (285) 
-33.253140334027314

>  <Energy_Delta>  (285) 
0

>  <std_smi>  (285) 
CC(=O)Nc1nc(C)c(-c2ccccn2)s1

>  <enum_smi>  (285) 
C=C(O)NC1=NC(=C)C(c2ccccn2)S1

>  <enum_code>  (285) 
T

>  <parent_uuid>  (285) 
38ce1dff-635b-49bf-aa41-0dda23e4ce8b

>  <o3da_score>  (285) 
91.819720648702088

>  <o3da_score_rel>  (285) 
0.36554764892947833

>  <o3da_align>  (285) 
0.5269751936205086

>  <RMSD>  (285) 
7.5028019897807632e-05

>  <CONVERGED>  (285) 
0

>  <ENERGY>  (285) 
-33.253140334137008

$$$$
975d95c3-5d2f-4b40-806b-23a6e7de1ea2
     RDKit          3D

 16 17  0  0  0  0  0  0  0  0999 V2000
   -3.1992   22.4198    5.1346 C   0  0  0  0  0  0  0  0  0  0  0  0
   -3.6710   23.6530    4.9384 C   0  0  0  0  0  0  0  0  0  0  0  0
   -4.9831   23.7786    4.5430 O   0  0  0  0  0  0  0  0  0  0  0  0
   -2.9361   24.7954    5.1041 N   0  0  0  0  0  0  0  0  0  0  0  0
   -3.3017   26.0955    4.9272 C   0  0  0  0  0  0  0  0  0  0  0  0
   -4.4727   26.5172    4.5628 N   0  0  0  0  0  0  0  0  0  0  0  0
   -4.5043   27.8898    4.4544 C   0  0  0  0  0  0  0  0  0  0  0  0
   -5.6457   28.5061    4.1146 C   0  0  0  0  0  0  0  0  0  0  0  0
   -3.2110   28.6208    4.7737 C   0  0  2  0  0  0  0  0  0  0  0  0
   -2.6397   29.4646    3.6463 C   0  0  0  0  0  0  0  0  0  0  0  0
   -2.1404   30.7391    3.9238 C   0  0  0  0  0  0  0  0  0  0  0  0
   -1.6021   31.4981    2.8873 C   0  0  0  0  0  0  0  0  0  0  0  0
   -1.5676   30.9712    1.6030 C   0  0  0  0  0  0  0  0  0  0  0  0
   -2.0728   29.6989    1.4066 C   0  0  0  0  0  0  0  0  0  0  0  0
   -2.6002   28.9408    2.3919 N   0  0  0  0  0  0  0  0  0  0  0  0
   -2.0628   27.2828    5.2516 S   0  0  0  0  0  0  0  0  0  0  0  0
  1  2  2  3
  2  3  1  0
  2  4  1  0
  4  5  1  0
  5  6  2  0
  6  7  1  0
  7  8  2  3
  7  9  1  0
  9 10  1  6
 10 11  2  0
 11 12  1  0
 12 13  2  0
 13 14  1  0
 14 15  2  0
  9 16  1  0
 16  5  1  0
 15 10  1  0
M  END
>  <Energy>  (286) 
-30.142000342824204

>  <Energy_Delta>  (286) 
3.1111399912031104

>  <std_smi>  (286) 
CC(=O)Nc1nc(C)c(-c2ccccn2)s1

>  <enum_smi>  (286) 
C=C(O)NC1=NC(=C)C(c2ccccn2)S1

>  <enum_code>  (286) 
T

>  <parent_uuid>  (286) 
38ce1dff-635b-49bf-aa41-0dda23e4ce8b

>  <o3da_score>  (286) 
95.150676397895054

>  <o3da_score_rel>  (286) 
0.37880866774115812

>  <o3da_align>  (286) 
0.51219839418767477

>  <RMSD>  (286) 
7.3159936576883955e-05

>  <CONVERGED>  (286) 
0

>  <ENERGY>  (286) 
-30.142000342893439

$$$$
975d95c3-5d2f-4b40-806b-23a6e7de1ea2
     RDKit          3D

 16 17  0  0  0  0  0  0  0  0999 V2000
   -5.8950   23.2562    3.8694 C   0  0  0  0  0  0  0  0  0  0  0  0
   -4.9633   24.1310    4.2548 C   0  0  0  0  0  0  0  0  0  0  0  0
   -3.7556   23.6295    4.6831 O   0  0  0  0  0  0  0  0  0  0  0  0
   -5.1317   25.4890    4.2507 N   0  0  0  0  0  0  0  0  0  0  0  0
   -4.2601   26.4725    4.6092 C   0  0  0  0  0  0  0  0  0  0  0  0
   -3.0540   26.2999    5.0537 N   0  0  0  0  0  0  0  0  0  0  0  0
   -2.4299   27.5023    5.3014 C   0  0  0  0  0  0  0  0  0  0  0  0
   -1.1831   27.5178    5.7946 C   0  0  0  0  0  0  0  0  0  0  0  0
   -3.2439   28.7544    5.0204 C   0  0  1  0  0  0  0  0  0  0  0  0
   -2.6491   29.7064    3.9961 C   0  0  0  0  0  0  0  0  0  0  0  0
   -2.6658   31.0813    4.2413 C   0  0  0  0  0  0  0  0  0  0  0  0
   -2.1347   31.9476    3.2886 C   0  0  0  0  0  0  0  0  0  0  0  0
   -1.6058   31.4283    2.1143 C   0  0  0  0  0  0  0  0  0  0  0  0
   -1.6320   30.0569    1.9381 C   0  0  0  0  0  0  0  0  0  0  0  0
   -2.1402   29.1937    2.8439 N   0  0  0  0  0  0  0  0  0  0  0  0
   -4.8599   28.1064    4.4675 S   0  0  0  0  0  0  0  0  0  0  0  0
  1  2  2  3
  2  3  1  0
  2  4  1  0
  4  5  1  0
  5  6  2  0
  6  7  1  0
  7  8  2  3
  7  9  1  0
  9 10  1  6
 10 11  2  0
 11 12  1  0
 12 13  2  0
 13 14  1  0
 14 15  2  0
  9 16  1  0
 16  5  1  0
 15 10  1  0
M  END
>  <Energy>  (287) 
-30.142000342709

>  <Energy_Delta>  (287) 
3.1111399913183142

>  <std_smi>  (287) 
CC(=O)Nc1nc(C)c(-c2ccccn2)s1

>  <enum_smi>  (287) 
C=C(O)NC1=NC(=C)C(c2ccccn2)S1

>  <enum_code>  (287) 
T

>  <parent_uuid>  (287) 
38ce1dff-635b-49bf-aa41-0dda23e4ce8b

>  <o3da_score>  (287) 
92.366325627998577

>  <o3da_score_rel>  (287) 
0.36772376277150842

>  <o3da_align>  (287) 
0.46953021868679262

>  <RMSD>  (287) 
6.1050055592648398e-05

>  <CONVERGED>  (287) 
0

>  <ENERGY>  (287) 
-30.14200034289297

$$$$
975d95c3-5d2f-4b40-806b-23a6e7de1ea2
     RDKit          3D

 16 17  0  0  0  0  0  0  0  0999 V2000
   -3.7064   23.4434    4.3536 C   0  0  0  0  0  0  0  0  0  0  0  0
   -4.8497   24.1155    4.2089 C   0  0  0  0  0  0  0  0  0  0  0  0
   -5.9648   23.3825    3.8713 O   0  0  0  0  0  0  0  0  0  0  0  0
   -5.0557   25.4589    4.3462 N   0  0  0  0  0  0  0  0  0  0  0  0
   -4.2185   26.4622    4.7431 C   0  0  0  0  0  0  0  0  0  0  0  0
   -3.0306   26.3889    5.2478 N   0  0  0  0  0  0  0  0  0  0  0  0
   -2.5065   27.6287    5.5311 C   0  0  0  0  0  0  0  0  0  0  0  0
   -1.3492   27.7339    6.1993 C   0  0  0  0  0  0  0  0  0  0  0  0
   -3.3275   28.8215    5.0822 C   0  0  1  0  0  0  0  0  0  0  0  0
   -2.6838   29.6693    3.9993 C   0  0  0  0  0  0  0  0  0  0  0  0
   -2.1434   29.1016    2.8417 C   0  0  0  0  0  0  0  0  0  0  0  0
   -1.5713   29.9310    1.8805 C   0  0  0  0  0  0  0  0  0  0  0  0
   -1.5510   31.3032    2.0896 C   0  0  0  0  0  0  0  0  0  0  0  0
   -2.1055   31.7928    3.2584 C   0  0  0  0  0  0  0  0  0  0  0  0
   -2.6657   31.0139    4.2102 N   0  0  0  0  0  0  0  0  0  0  0  0
   -4.8954   28.0679    4.5229 S   0  0  0  0  0  0  0  0  0  0  0  0
  1  2  2  3
  2  3  1  0
  2  4  1  0
  4  5  1  0
  5  6  2  0
  6  7  1  0
  7  8  2  3
  7  9  1  0
  9 10  1  6
 10 11  2  0
 11 12  1  0
 12 13  2  0
 13 14  1  0
 14 15  2  0
  9 16  1  0
 16  5  1  0
 15 10  1  0
M  END
>  <Energy>  (288) 
-28.379173670047486

>  <Energy_Delta>  (288) 
4.8739666639798287

>  <std_smi>  (288) 
CC(=O)Nc1nc(C)c(-c2ccccn2)s1

>  <enum_smi>  (288) 
C=C(O)NC1=NC(=C)C(c2ccccn2)S1

>  <enum_code>  (288) 
T

>  <parent_uuid>  (288) 
38ce1dff-635b-49bf-aa41-0dda23e4ce8b

>  <o3da_score>  (288) 
91.673647474506126

>  <o3da_score_rel>  (288) 
0.36496611039917404

>  <o3da_align>  (288) 
0.45910821364704163

>  <RMSD>  (288) 
0.11068884997223048

>  <CONVERGED>  (288) 
0

>  <ENERGY>  (288) 
-23.81642271280413

$$$$
975d95c3-5d2f-4b40-806b-23a6e7de1ea2
     RDKit          3D

 16 17  0  0  0  0  0  0  0  0999 V2000
   -4.4288   25.7506    4.0118 C   0  0  0  0  0  0  0  0  0  0  0  0
   -3.3411   25.9249    4.7644 C   0  0  0  0  0  0  0  0  0  0  0  0
   -2.8858   24.8305    5.4642 O   0  0  0  0  0  0  0  0  0  0  0  0
   -2.6059   27.0651    4.9241 N   0  0  0  0  0  0  0  0  0  0  0  0
   -2.8008   28.3345    4.4596 C   0  0  0  0  0  0  0  0  0  0  0  0
   -3.8282   28.8407    3.8601 N   0  0  0  0  0  0  0  0  0  0  0  0
   -3.6504   30.1694    3.5519 C   0  0  0  0  0  0  0  0  0  0  0  0
   -4.6710   30.8907    3.0673 C   0  0  0  0  0  0  0  0  0  0  0  0
   -2.2750   30.7433    3.8300 C   0  0  2  0  0  0  0  0  0  0  0  0
   -1.4979   31.1672    2.5963 C   0  0  0  0  0  0  0  0  0  0  0  0
   -1.3605   30.3281    1.4866 C   0  0  0  0  0  0  0  0  0  0  0  0
   -0.6307   30.7697    0.3859 C   0  0  0  0  0  0  0  0  0  0  0  0
   -0.0532   32.0318    0.4133 C   0  0  0  0  0  0  0  0  0  0  0  0
   -0.2309   32.8056    1.5460 C   0  0  0  0  0  0  0  0  0  0  0  0
   -0.9348   32.4060    2.6283 N   0  0  0  0  0  0  0  0  0  0  0  0
   -1.4349   29.4018    4.7431 S   0  0  0  0  0  0  0  0  0  0  0  0
  1  2  2  3
  2  3  1  0
  2  4  1  0
  4  5  1  0
  5  6  2  0
  6  7  1  0
  7  8  2  3
  7  9  1  0
  9 10  1  6
 10 11  2  0
 11 12  1  0
 12 13  2  0
 13 14  1  0
 14 15  2  0
  9 16  1  0
 16  5  1  0
 15 10  1  0
M  END
>  <Energy>  (289) 
-28.379173669605493

>  <Energy_Delta>  (289) 
4.8739666644218218

>  <std_smi>  (289) 
CC(=O)Nc1nc(C)c(-c2ccccn2)s1

>  <enum_smi>  (289) 
C=C(O)NC1=NC(=C)C(c2ccccn2)S1

>  <enum_code>  (289) 
T

>  <parent_uuid>  (289) 
38ce1dff-635b-49bf-aa41-0dda23e4ce8b

>  <o3da_score>  (289) 
70.60957075551724

>  <o3da_score_rel>  (289) 
0.28110696045734296

>  <o3da_align>  (289) 
0.36201763896927419

>  <RMSD>  (289) 
0.11068910622446142

>  <CONVERGED>  (289) 
0

>  <ENERGY>  (289) 
-23.816422712800872

$$$$
975d95c3-5d2f-4b40-806b-23a6e7de1ea2
     RDKit          3D

 16 17  0  0  0  0  0  0  0  0999 V2000
   -1.6262   31.4192    2.3908 C   0  0  0  0  0  0  0  0  0  0  0  0
   -1.3718   30.4342    1.5279 C   0  0  0  0  0  0  0  0  0  0  0  0
   -0.7008   30.7720    0.3744 O   0  0  0  0  0  0  0  0  0  0  0  0
   -1.6898   29.1116    1.6486 N   0  0  0  0  0  0  0  0  0  0  0  0
   -2.4307   28.4429    2.5814 C   0  0  0  0  0  0  0  0  0  0  0  0
   -3.1602   28.9138    3.5387 N   0  0  0  0  0  0  0  0  0  0  0  0
   -3.7849   27.9195    4.2559 C   0  0  0  0  0  0  0  0  0  0  0  0
   -4.5927   28.2423    5.2765 C   0  0  0  0  0  0  0  0  0  0  0  0
   -3.4751   26.4954    3.8377 C   0  0  1  0  0  0  0  0  0  0  0  0
   -4.6776   25.6394    3.4757 C   0  0  0  0  0  0  0  0  0  0  0  0
   -4.8067   24.3630    4.0278 C   0  0  0  0  0  0  0  0  0  0  0  0
   -5.9069   23.5815    3.6828 C   0  0  0  0  0  0  0  0  0  0  0  0
   -6.8494   24.0846    2.7958 C   0  0  0  0  0  0  0  0  0  0  0  0
   -6.6511   25.3544    2.2849 C   0  0  0  0  0  0  0  0  0  0  0  0
   -5.5944   26.1336    2.6006 N   0  0  0  0  0  0  0  0  0  0  0  0
   -2.3411   26.6958    2.4225 S   0  0  0  0  0  0  0  0  0  0  0  0
  1  2  2  3
  2  3  1  0
  2  4  1  0
  4  5  1  0
  5  6  2  0
  6  7  1  0
  7  8  2  3
  7  9  1  0
  9 10  1  6
 10 11  2  0
 11 12  1  0
 12 13  2  0
 13 14  1  0
 14 15  2  0
  9 16  1  0
 16  5  1  0
 15 10  1  0
M  END
>  <Energy>  (290) 
-24.652902522947926

>  <Energy_Delta>  (290) 
8.6002378110793885

>  <std_smi>  (290) 
CC(=O)Nc1nc(C)c(-c2ccccn2)s1

>  <enum_smi>  (290) 
C=C(O)NC1=NC(=C)C(c2ccccn2)S1

>  <enum_code>  (290) 
T

>  <parent_uuid>  (290) 
38ce1dff-635b-49bf-aa41-0dda23e4ce8b

>  <o3da_score>  (290) 
76.852935982075024

>  <o3da_score_rel>  (290) 
0.3059627045595063

>  <o3da_align>  (290) 
0.44686657268835017

>  <RMSD>  (290) 
0.15216160705923912

>  <CONVERGED>  (290) 
0

>  <ENERGY>  (290) 
-20.27750330298835

$$$$
975d95c3-5d2f-4b40-806b-23a6e7de1ea2
     RDKit          3D

 16 17  0  0  0  0  0  0  0  0999 V2000
   -0.1767   33.3758    0.9880 C   0  0  0  0  0  0  0  0  0  0  0  0
    0.0594   32.1830    0.4394 C   0  0  0  0  0  0  0  0  0  0  0  0
    0.9636   32.1404   -0.5977 O   0  0  0  0  0  0  0  0  0  0  0  0
   -0.4961   30.9815    0.7752 N   0  0  0  0  0  0  0  0  0  0  0  0
   -1.3295   30.6268    1.7978 C   0  0  0  0  0  0  0  0  0  0  0  0
   -1.7086   31.3176    2.8223 N   0  0  0  0  0  0  0  0  0  0  0  0
   -2.5334   30.6008    3.6585 C   0  0  0  0  0  0  0  0  0  0  0  0
   -3.0032   31.1701    4.7781 C   0  0  0  0  0  0  0  0  0  0  0  0
   -2.8768   29.1920    3.2153 C   0  0  2  0  0  0  0  0  0  0  0  0
   -2.5418   28.0901    4.2068 C   0  0  0  0  0  0  0  0  0  0  0  0
   -3.5048   27.1283    4.5202 C   0  0  0  0  0  0  0  0  0  0  0  0
   -3.1858   26.1162    5.4226 C   0  0  0  0  0  0  0  0  0  0  0  0
   -1.9182   26.0817    5.9884 C   0  0  0  0  0  0  0  0  0  0  0  0
   -1.0153   27.0643    5.6252 C   0  0  0  0  0  0  0  0  0  0  0  0
   -1.2963   28.0561    4.7530 N   0  0  0  0  0  0  0  0  0  0  0  0
   -1.9576   28.9929    1.6518 S   0  0  0  0  0  0  0  0  0  0  0  0
  1  2  2  3
  2  3  1  0
  2  4  1  0
  4  5  1  0
  5  6  2  0
  6  7  1  0
  7  8  2  3
  7  9  1  0
  9 10  1  1
 10 11  2  0
 11 12  1  0
 12 13  2  0
 13 14  1  0
 14 15  2  0
  9 16  1  0
 16  5  1  0
 15 10  1  0
M  END
>  <Energy>  (291) 
-24.652902522509965

>  <Energy_Delta>  (291) 
8.6002378115173492

>  <std_smi>  (291) 
CC(=O)Nc1nc(C)c(-c2ccccn2)s1

>  <enum_smi>  (291) 
C=C(O)NC1=NC(=C)C(c2ccccn2)S1

>  <enum_code>  (291) 
T

>  <parent_uuid>  (291) 
38ce1dff-635b-49bf-aa41-0dda23e4ce8b

>  <o3da_score>  (291) 
78.791780670041831

>  <o3da_score_rel>  (291) 
0.31368152696844476

>  <o3da_align>  (291) 
0.3831635183980604

>  <RMSD>  (291) 
0.15213387453779662

>  <CONVERGED>  (291) 
0

>  <ENERGY>  (291) 
-20.277503302988293

$$$$
975d95c3-5d2f-4b40-806b-23a6e7de1ea2
     RDKit          3D

 16 17  0  0  0  0  0  0  0  0999 V2000
    0.8766   32.3812   -0.6076 C   0  0  0  0  0  0  0  0  0  0  0  0
    0.1113   32.0995    0.4491 C   0  0  0  0  0  0  0  0  0  0  0  0
   -0.0096   33.0632    1.4237 O   0  0  0  0  0  0  0  0  0  0  0  0
   -0.5579   30.9185    0.6234 N   0  0  0  0  0  0  0  0  0  0  0  0
   -1.3600   30.5186    1.6481 C   0  0  0  0  0  0  0  0  0  0  0  0
   -1.6566   31.2111    2.7042 N   0  0  0  0  0  0  0  0  0  0  0  0
   -2.4881   30.5131    3.5510 C   0  0  0  0  0  0  0  0  0  0  0  0
   -2.7950   31.0135    4.7561 C   0  0  0  0  0  0  0  0  0  0  0  0
   -2.9808   29.1658    3.0503 C   0  0  1  0  0  0  0  0  0  0  0  0
   -4.4812   29.0745    2.8367 C   0  0  0  0  0  0  0  0  0  0  0  0
   -5.1806   30.0313    2.0955 C   0  0  0  0  0  0  0  0  0  0  0  0
   -6.5564   29.8921    1.9314 C   0  0  0  0  0  0  0  0  0  0  0  0
   -7.2046   28.8067    2.5049 C   0  0  0  0  0  0  0  0  0  0  0  0
   -6.4468   27.9005    3.2245 C   0  0  0  0  0  0  0  0  0  0  0  0
   -5.1116   28.0098    3.4032 N   0  0  0  0  0  0  0  0  0  0  0  0
   -2.0471   28.9208    1.4969 S   0  0  0  0  0  0  0  0  0  0  0  0
  1  2  2  3
  2  3  1  0
  2  4  1  0
  4  5  1  0
  5  6  2  0
  6  7  1  0
  7  8  2  3
  7  9  1  0
  9 10  1  6
 10 11  2  0
 11 12  1  0
 12 13  2  0
 13 14  1  0
 14 15  2  0
  9 16  1  0
 16  5  1  0
 15 10  1  0
M  END
>  <Energy>  (292) 
-22.151645178423582

>  <Energy_Delta>  (292) 
11.101495155603732

>  <std_smi>  (292) 
CC(=O)Nc1nc(C)c(-c2ccccn2)s1

>  <enum_smi>  (292) 
C=C(O)NC1=NC(=C)C(c2ccccn2)S1

>  <enum_code>  (292) 
T

>  <parent_uuid>  (292) 
38ce1dff-635b-49bf-aa41-0dda23e4ce8b

>  <o3da_score>  (292) 
73.483467062557665

>  <o3da_score_rel>  (292) 
0.29254835922096017

>  <o3da_align>  (292) 
0.34638268249883031

>  <RMSD>  (292) 
0.088975662922111648

>  <CONVERGED>  (292) 
0

>  <ENERGY>  (292) 
-33.253140334203898

$$$$
05b7dbb3-3f88-47f3-acad-198a0449d6ef
     RDKit          3D

 16 17  0  0  0  0  0  0  0  0999 V2000
    0.7657   32.5860   -0.5783 C   0  0  0  0  0  0  0  0  0  0  0  0
    0.0176   32.1260    0.4269 C   0  0  0  0  0  0  0  0  0  0  0  0
   -0.2756   32.9951    1.4524 O   0  0  0  0  0  0  0  0  0  0  0  0
   -0.4734   30.8506    0.5013 N   0  0  0  0  0  0  0  0  0  0  0  0
   -1.2415   30.2735    1.4669 C   0  0  0  0  0  0  0  0  0  0  0  0
   -1.6753   30.8362    2.5540 N   0  0  0  0  0  0  0  0  0  0  0  0
   -2.4532   29.9662    3.2939 C   0  0  0  0  0  0  0  0  0  0  0  0
   -3.3228   30.4686    4.1795 C   0  0  0  0  0  0  0  0  0  0  0  0
   -2.3423   28.5737    2.8596 C   0  0  0  0  0  0  0  0  0  0  0  0
   -2.5551   27.4023    3.5080 C   0  0  0  0  0  0  0  0  0  0  0  0
   -2.9070   27.3084    4.9371 C   0  0  0  0  0  0  0  0  0  0  0  0
   -3.1562   26.1224    5.5274 C   0  0  0  0  0  0  0  0  0  0  0  0
   -3.0805   24.8888    4.7699 C   0  0  0  0  0  0  0  0  0  0  0  0
   -2.7073   24.9592    3.4843 C   0  0  0  0  0  0  0  0  0  0  0  0
   -2.4215   26.1585    2.8804 N   0  0  0  0  0  0  0  0  0  0  0  0
   -1.6836   28.5951    1.2298 S   0  0  0  0  0  0  0  0  0  0  0  0
  1  2  2  3
  2  3  1  0
  2  4  1  0
  4  5  1  0
  5  6  2  0
  6  7  1  0
  7  8  2  3
  7  9  1  0
  9 10  2  3
 10 11  1  0
 11 12  2  0
 12 13  1  0
 13 14  2  0
 14 15  1  0
  9 16  1  0
 16  5  1  0
 15 10  1  0
M  END
>  <Energy>  (293) 
-42.103351730718359

>  <Energy_Delta>  (293) 
0

>  <std_smi>  (293) 
CC(=O)Nc1nc(C)c(-c2ccccn2)s1

>  <enum_smi>  (293) 
C=C(O)Nc1nc(=C)c(=C2C=CC=CN2)s1

>  <enum_code>  (293) 
T

>  <parent_uuid>  (293) 
38ce1dff-635b-49bf-aa41-0dda23e4ce8b

>  <o3da_score>  (293) 
84.50445676454963

>  <o3da_score_rel>  (293) 
0.33642452052897331

>  <o3da_align>  (293) 
0.39497459536524193

>  <RMSD>  (293) 
7.1787355111613179e-05

>  <CONVERGED>  (293) 
0

>  <ENERGY>  (293) 
-42.103351730784262

$$$$
05b7dbb3-3f88-47f3-acad-198a0449d6ef
     RDKit          3D

 16 17  0  0  0  0  0  0  0  0999 V2000
    0.3811   32.7214   -0.7973 C   0  0  0  0  0  0  0  0  0  0  0  0
   -0.1797   32.2547    0.3204 C   0  0  0  0  0  0  0  0  0  0  0  0
   -0.4131   33.1506    1.3382 O   0  0  0  0  0  0  0  0  0  0  0  0
   -0.5357   30.9478    0.5166 N   0  0  0  0  0  0  0  0  0  0  0  0
   -1.1077   30.3601    1.6041 C   0  0  0  0  0  0  0  0  0  0  0  0
   -1.4473   30.9434    2.7137 N   0  0  0  0  0  0  0  0  0  0  0  0
   -1.9739   30.0389    3.6159 C   0  0  0  0  0  0  0  0  0  0  0  0
   -1.9669   30.3456    4.9192 C   0  0  0  0  0  0  0  0  0  0  0  0
   -2.3121   28.7483    3.0157 C   0  0  0  0  0  0  0  0  0  0  0  0
   -3.1911   27.7822    3.3788 C   0  0  0  0  0  0  0  0  0  0  0  0
   -4.1107   27.8996    4.5258 C   0  0  0  0  0  0  0  0  0  0  0  0
   -4.9343   26.8921    4.8776 C   0  0  0  0  0  0  0  0  0  0  0  0
   -4.9461   25.6508    4.1292 C   0  0  0  0  0  0  0  0  0  0  0  0
   -4.1539   25.5554    3.0520 C   0  0  0  0  0  0  0  0  0  0  0  0
   -3.3332   26.5861    2.6663 N   0  0  0  0  0  0  0  0  0  0  0  0
   -1.4324   28.6420    1.4972 S   0  0  0  0  0  0  0  0  0  0  0  0
  1  2  2  3
  2  3  1  0
  2  4  1  0
  4  5  1  0
  5  6  2  0
  6  7  1  0
  7  8  2  3
  7  9  1  0
  9 10  2  3
 10 11  1  0
 11 12  2  0
 12 13  1  0
 13 14  2  0
 14 15  1  0
  9 16  1  0
 16  5  1  0
 15 10  1  0
M  END
>  <Energy>  (294) 
-42.103351730453262

>  <Energy_Delta>  (294) 
2.6509638928473578e-10

>  <std_smi>  (294) 
CC(=O)Nc1nc(C)c(-c2ccccn2)s1

>  <enum_smi>  (294) 
C=C(O)Nc1nc(=C)c(=C2C=CC=CN2)s1

>  <enum_code>  (294) 
T

>  <parent_uuid>  (294) 
38ce1dff-635b-49bf-aa41-0dda23e4ce8b

>  <o3da_score>  (294) 
88.939843042448715

>  <o3da_score_rel>  (294) 
0.35408243774463627

>  <o3da_align>  (294) 
0.49652391293614473

>  <RMSD>  (294) 
6.9195627444829062e-05

>  <CONVERGED>  (294) 
0

>  <ENERGY>  (294) 
-42.103351730776509

$$$$
05b7dbb3-3f88-47f3-acad-198a0449d6ef
     RDKit          3D

 16 17  0  0  0  0  0  0  0  0999 V2000
    0.6104   32.4950   -0.6625 C   0  0  0  0  0  0  0  0  0  0  0  0
   -0.0609   32.1015    0.4220 C   0  0  0  0  0  0  0  0  0  0  0  0
   -0.3780   33.0593    1.3575 O   0  0  0  0  0  0  0  0  0  0  0  0
   -0.4519   30.8119    0.6607 N   0  0  0  0  0  0  0  0  0  0  0  0
   -1.1330   30.2953    1.7210 C   0  0  0  0  0  0  0  0  0  0  0  0
   -1.5696   30.9462    2.7562 N   0  0  0  0  0  0  0  0  0  0  0  0
   -2.1909   30.0988    3.6524 C   0  0  0  0  0  0  0  0  0  0  0  0
   -2.3245   30.4831    4.9286 C   0  0  0  0  0  0  0  0  0  0  0  0
   -2.4821   28.7706    3.1020 C   0  0  0  0  0  0  0  0  0  0  0  0
   -3.4229   27.8767    3.5015 C   0  0  0  0  0  0  0  0  0  0  0  0
   -3.5579   26.5409    2.8741 C   0  0  0  0  0  0  0  0  0  0  0  0
   -4.5250   25.6772    3.2397 C   0  0  0  0  0  0  0  0  0  0  0  0
   -5.4880   26.0378    4.2586 C   0  0  0  0  0  0  0  0  0  0  0  0
   -5.3723   27.2404    4.8380 C   0  0  0  0  0  0  0  0  0  0  0  0
   -4.3656   28.1184    4.5075 N   0  0  0  0  0  0  0  0  0  0  0  0
   -1.4696   28.5778    1.6853 S   0  0  0  0  0  0  0  0  0  0  0  0
  1  2  2  3
  2  3  1  0
  2  4  1  0
  4  5  1  0
  5  6  2  0
  6  7  1  0
  7  8  2  3
  7  9  1  0
  9 10  2  3
 10 11  1  0
 11 12  2  0
 12 13  1  0
 13 14  2  0
 14 15  1  0
  9 16  1  0
 16  5  1  0
 15 10  1  0
M  END
>  <Energy>  (295) 
-40.647868161371683

>  <Energy_Delta>  (295) 
1.4554835693466757

>  <std_smi>  (295) 
CC(=O)Nc1nc(C)c(-c2ccccn2)s1

>  <enum_smi>  (295) 
C=C(O)Nc1nc(=C)c(=C2C=CC=CN2)s1

>  <enum_code>  (295) 
T

>  <parent_uuid>  (295) 
38ce1dff-635b-49bf-aa41-0dda23e4ce8b

>  <o3da_score>  (295) 
88.487014274887144

>  <o3da_score_rel>  (295) 
0.35227966062681998

>  <o3da_align>  (295) 
0.43758067527161026

>  <RMSD>  (295) 
7.7254977876570506e-05

>  <CONVERGED>  (295) 
0

>  <ENERGY>  (295) 
-40.647868161404027

$$$$
05b7dbb3-3f88-47f3-acad-198a0449d6ef
     RDKit          3D

 16 17  0  0  0  0  0  0  0  0999 V2000
    0.9121   32.2338   -0.6530 C   0  0  0  0  0  0  0  0  0  0  0  0
    0.1152   32.0489    0.4017 C   0  0  0  0  0  0  0  0  0  0  0  0
    0.0196   33.0732    1.3154 O   0  0  0  0  0  0  0  0  0  0  0  0
   -0.6091   30.9105    0.6305 N   0  0  0  0  0  0  0  0  0  0  0  0
   -1.4490   30.6103    1.6597 C   0  0  0  0  0  0  0  0  0  0  0  0
   -1.7403   31.3693    2.6721 N   0  0  0  0  0  0  0  0  0  0  0  0
   -2.6512   30.7558    3.5094 C   0  0  0  0  0  0  0  0  0  0  0  0
   -3.3782   31.5083    4.3459 C   0  0  0  0  0  0  0  0  0  0  0  0
   -2.8268   29.3245    3.2410 C   0  0  0  0  0  0  0  0  0  0  0  0
   -3.2656   28.3533    4.0823 C   0  0  0  0  0  0  0  0  0  0  0  0
   -3.4427   26.9495    3.6417 C   0  0  0  0  0  0  0  0  0  0  0  0
   -3.8301   25.9797    4.4929 C   0  0  0  0  0  0  0  0  0  0  0  0
   -4.0716   26.2780    5.8887 C   0  0  0  0  0  0  0  0  0  0  0  0
   -3.9213   27.5450    6.2978 C   0  0  0  0  0  0  0  0  0  0  0  0
   -3.5677   28.5562    5.4339 N   0  0  0  0  0  0  0  0  0  0  0  0
   -2.2091   29.0337    1.6275 S   0  0  0  0  0  0  0  0  0  0  0  0
  1  2  2  3
  2  3  1  0
  2  4  1  0
  4  5  1  0
  5  6  2  0
  6  7  1  0
  7  8  2  3
  7  9  1  0
  9 10  2  3
 10 11  1  0
 11 12  2  0
 12 13  1  0
 13 14  2  0
 14 15  1  0
  9 16  1  0
 16  5  1  0
 15 10  1  0
M  END
>  <Energy>  (296) 
-40.647868160691161

>  <Energy_Delta>  (296) 
1.455483570027198

>  <std_smi>  (296) 
CC(=O)Nc1nc(C)c(-c2ccccn2)s1

>  <enum_smi>  (296) 
C=C(O)Nc1nc(=C)c(=C2C=CC=CN2)s1

>  <enum_code>  (296) 
T

>  <parent_uuid>  (296) 
38ce1dff-635b-49bf-aa41-0dda23e4ce8b

>  <o3da_score>  (296) 
82.248530562149512

>  <o3da_score_rel>  (296) 
0.32744335054043855

>  <o3da_align>  (296) 
0.4435596461190035

>  <RMSD>  (296) 
6.4380963152879274e-05

>  <CONVERGED>  (296) 
0

>  <ENERGY>  (296) 
-40.647868161420021

$$$$
05b7dbb3-3f88-47f3-acad-198a0449d6ef
     RDKit          3D

 16 17  0  0  0  0  0  0  0  0999 V2000
   -1.6352   33.6786    3.2578 C   0  0  0  0  0  0  0  0  0  0  0  0
   -1.1468   32.6205    2.6087 C   0  0  0  0  0  0  0  0  0  0  0  0
   -0.2628   32.8705    1.5838 O   0  0  0  0  0  0  0  0  0  0  0  0
   -1.4235   31.3007    2.8280 N   0  0  0  0  0  0  0  0  0  0  0  0
   -2.1716   30.6898    3.7947 C   0  0  0  0  0  0  0  0  0  0  0  0
   -2.7028   31.1814    4.8676 N   0  0  0  0  0  0  0  0  0  0  0  0
   -3.3588   30.2195    5.6086 C   0  0  0  0  0  0  0  0  0  0  0  0
   -3.5750   30.4414    6.9113 C   0  0  0  0  0  0  0  0  0  0  0  0
   -3.5728   28.9713    4.8803 C   0  0  0  0  0  0  0  0  0  0  0  0
   -4.4861   27.9803    5.0272 C   0  0  0  0  0  0  0  0  0  0  0  0
   -5.5873   28.0194    6.0075 C   0  0  0  0  0  0  0  0  0  0  0  0
   -6.4441   26.9885    6.1499 C   0  0  0  0  0  0  0  0  0  0  0  0
   -6.3121   25.7988    5.3323 C   0  0  0  0  0  0  0  0  0  0  0  0
   -5.3484   25.7765    4.4007 C   0  0  0  0  0  0  0  0  0  0  0  0
   -4.4888   26.8325    4.2264 N   0  0  0  0  0  0  0  0  0  0  0  0
   -2.4477   28.9689    3.5317 S   0  0  0  0  0  0  0  0  0  0  0  0
  1  2  2  3
  2  3  1  0
  2  4  1  0
  4  5  1  0
  5  6  2  0
  6  7  1  0
  7  8  2  3
  7  9  1  0
  9 10  2  3
 10 11  1  0
 11 12  2  0
 12 13  1  0
 13 14  2  0
 14 15  1  0
  9 16  1  0
 16  5  1  0
 15 10  1  0
M  END
>  <Energy>  (297) 
-37.640253632058695

>  <Energy_Delta>  (297) 
4.463098098659664

>  <std_smi>  (297) 
CC(=O)Nc1nc(C)c(-c2ccccn2)s1

>  <enum_smi>  (297) 
C=C(O)Nc1nc(=C)c(=C2C=CC=CN2)s1

>  <enum_code>  (297) 
T

>  <parent_uuid>  (297) 
38ce1dff-635b-49bf-aa41-0dda23e4ce8b

>  <o3da_score>  (297) 
76.027840560071141

>  <o3da_score_rel>  (297) 
0.30267787980154442

>  <o3da_align>  (297) 
0.38989522038034974

>  <RMSD>  (297) 
0.10141418682745228

>  <CONVERGED>  (297) 
0

>  <ENERGY>  (297) 
-32.687918150763295

$$$$
05b7dbb3-3f88-47f3-acad-198a0449d6ef
     RDKit          3D

 16 17  0  0  0  0  0  0  0  0999 V2000
    0.3458   31.9594   -2.4872 C   0  0  0  0  0  0  0  0  0  0  0  0
    0.8517   32.7727   -1.5587 C   0  0  0  0  0  0  0  0  0  0  0  0
    1.6662   33.7914   -1.9982 O   0  0  0  0  0  0  0  0  0  0  0  0
    0.6537   32.7292   -0.2076 N   0  0  0  0  0  0  0  0  0  0  0  0
   -0.0102   31.8250    0.5729 C   0  0  0  0  0  0  0  0  0  0  0  0
   -0.5076   30.6705    0.2656 N   0  0  0  0  0  0  0  0  0  0  0  0
   -1.0741   30.0433    1.3566 C   0  0  0  0  0  0  0  0  0  0  0  0
   -1.2316   28.7139    1.3296 C   0  0  0  0  0  0  0  0  0  0  0  0
   -1.2634   30.9297    2.5024 C   0  0  0  0  0  0  0  0  0  0  0  0
   -2.1166   30.8823    3.5548 C   0  0  0  0  0  0  0  0  0  0  0  0
   -3.1647   29.8572    3.7147 C   0  0  0  0  0  0  0  0  0  0  0  0
   -3.9597   29.8225    4.8028 C   0  0  0  0  0  0  0  0  0  0  0  0
   -3.8116   30.8047    5.8585 C   0  0  0  0  0  0  0  0  0  0  0  0
   -2.8989   31.7732    5.6966 C   0  0  0  0  0  0  0  0  0  0  0  0
   -2.1041   31.8360    4.5791 N   0  0  0  0  0  0  0  0  0  0  0  0
   -0.2129   32.3150    2.2539 S   0  0  0  0  0  0  0  0  0  0  0  0
  1  2  2  3
  2  3  1  0
  2  4  1  0
  4  5  1  0
  5  6  2  0
  6  7  1  0
  7  8  2  3
  7  9  1  0
  9 10  2  3
 10 11  1  0
 11 12  2  0
 12 13  1  0
 13 14  2  0
 14 15  1  0
  9 16  1  0
 16  5  1  0
 15 10  1  0
M  END
>  <Energy>  (298) 
-37.640253631297767

>  <Energy_Delta>  (298) 
4.4630980994205913

>  <std_smi>  (298) 
CC(=O)Nc1nc(C)c(-c2ccccn2)s1

>  <enum_smi>  (298) 
C=C(O)Nc1nc(=C)c(=C2C=CC=CN2)s1

>  <enum_code>  (298) 
T

>  <parent_uuid>  (298) 
38ce1dff-635b-49bf-aa41-0dda23e4ce8b

>  <o3da_score>  (298) 
72.148641746939504

>  <o3da_score_rel>  (298) 
0.28723422569486712

>  <o3da_align>  (298) 
0.54587029087726369

>  <RMSD>  (298) 
0.10140184980889611

>  <CONVERGED>  (298) 
0

>  <ENERGY>  (298) 
-32.687918150769221

$$$$
05b7dbb3-3f88-47f3-acad-198a0449d6ef
     RDKit          3D

 16 17  0  0  0  0  0  0  0  0999 V2000
    0.7939   34.9744    3.0089 C   0  0  0  0  0  0  0  0  0  0  0  0
    0.7602   34.2442    1.8929 C   0  0  0  0  0  0  0  0  0  0  0  0
    1.6188   34.6109    0.8815 O   0  0  0  0  0  0  0  0  0  0  0  0
   -0.0227   33.1572    1.6255 N   0  0  0  0  0  0  0  0  0  0  0  0
   -1.0275   32.5758    2.3462 C   0  0  0  0  0  0  0  0  0  0  0  0
   -1.6230   32.9836    3.4201 N   0  0  0  0  0  0  0  0  0  0  0  0
   -2.6182   32.1156    3.8177 C   0  0  0  0  0  0  0  0  0  0  0  0
   -3.5883   32.5616    4.6268 C   0  0  0  0  0  0  0  0  0  0  0  0
   -2.5702   30.8171    3.1416 C   0  0  0  0  0  0  0  0  0  0  0  0
   -3.0675   29.6252    3.5604 C   0  0  0  0  0  0  0  0  0  0  0  0
   -2.9861   28.4007    2.7296 C   0  0  0  0  0  0  0  0  0  0  0  0
   -3.4352   27.2098    3.1713 C   0  0  0  0  0  0  0  0  0  0  0  0
   -4.0029   27.0821    4.4968 C   0  0  0  0  0  0  0  0  0  0  0  0
   -4.0882   28.1836    5.2550 C   0  0  0  0  0  0  0  0  0  0  0  0
   -3.6744   29.4161    4.8043 N   0  0  0  0  0  0  0  0  0  0  0  0
   -1.5926   31.0351    1.7063 S   0  0  0  0  0  0  0  0  0  0  0  0
  1  2  2  3
  2  3  1  0
  2  4  1  0
  4  5  1  0
  5  6  2  0
  6  7  1  0
  7  8  2  3
  7  9  1  0
  9 10  2  3
 10 11  1  0
 11 12  2  0
 12 13  1  0
 13 14  2  0
 14 15  1  0
  9 16  1  0
 16  5  1  0
 15 10  1  0
M  END
>  <Energy>  (299) 
-36.152244517576079

>  <Energy_Delta>  (299) 
5.9511072131422793

>  <std_smi>  (299) 
CC(=O)Nc1nc(C)c(-c2ccccn2)s1

>  <enum_smi>  (299) 
C=C(O)Nc1nc(=C)c(=C2C=CC=CN2)s1

>  <enum_code>  (299) 
T

>  <parent_uuid>  (299) 
38ce1dff-635b-49bf-aa41-0dda23e4ce8b

>  <o3da_score>  (299) 
68.945593470752613

>  <o3da_score_rel>  (299) 
0.27448242511765325

>  <o3da_align>  (299) 
0.5545576642273059

>  <RMSD>  (299) 
0.10019456603384747

>  <CONVERGED>  (299) 
0

>  <ENERGY>  (299) 
-31.318625775998861

$$$$
05b7dbb3-3f88-47f3-acad-198a0449d6ef
     RDKit          3D

 16 17  0  0  0  0  0  0  0  0999 V2000
    0.4314   34.7747   -1.0055 C   0  0  0  0  0  0  0  0  0  0  0  0
    0.9029   33.5573   -1.2794 C   0  0  0  0  0  0  0  0  0  0  0  0
    1.6736   33.4272   -2.4124 O   0  0  0  0  0  0  0  0  0  0  0  0
    0.7078   32.4041   -0.5735 N   0  0  0  0  0  0  0  0  0  0  0  0
    0.0824   32.1775    0.6201 C   0  0  0  0  0  0  0  0  0  0  0  0
   -0.3710   33.0180    1.4932 N   0  0  0  0  0  0  0  0  0  0  0  0
   -0.9072   32.3795    2.5918 C   0  0  0  0  0  0  0  0  0  0  0  0
   -1.0325   33.0545    3.7421 C   0  0  0  0  0  0  0  0  0  0  0  0
   -1.1216   30.9445    2.3908 C   0  0  0  0  0  0  0  0  0  0  0  0
   -1.9887   30.1197    3.0322 C   0  0  0  0  0  0  0  0  0  0  0  0
   -2.0492   28.6660    2.7508 C   0  0  0  0  0  0  0  0  0  0  0  0
   -2.9464   27.8613    3.3528 C   0  0  0  0  0  0  0  0  0  0  0  0
   -3.9056   28.4009    4.2932 C   0  0  0  0  0  0  0  0  0  0  0  0
   -3.8565   29.7128    4.5610 C   0  0  0  0  0  0  0  0  0  0  0  0
   -2.9195   30.5421    3.9885 N   0  0  0  0  0  0  0  0  0  0  0  0
   -0.1343   30.4767    1.0236 S   0  0  0  0  0  0  0  0  0  0  0  0
  1  2  2  3
  2  3  1  0
  2  4  1  0
  4  5  1  0
  5  6  2  0
  6  7  1  0
  7  8  2  3
  7  9  1  0
  9 10  2  3
 10 11  1  0
 11 12  2  0
 12 13  1  0
 13 14  2  0
 14 15  1  0
  9 16  1  0
 16  5  1  0
 15 10  1  0
M  END
>  <Energy>  (300) 
-36.152244516402519

>  <Energy_Delta>  (300) 
5.9511072143158401

>  <std_smi>  (300) 
CC(=O)Nc1nc(C)c(-c2ccccn2)s1

>  <enum_smi>  (300) 
C=C(O)Nc1nc(=C)c(=C2C=CC=CN2)s1

>  <enum_code>  (300) 
T

>  <parent_uuid>  (300) 
38ce1dff-635b-49bf-aa41-0dda23e4ce8b

>  <o3da_score>  (300) 
79.077491212300487

>  <o3da_score_rel>  (300) 
0.3148189821497408

>  <o3da_align>  (300) 
0.51505328423515506

>  <RMSD>  (300) 
0.10020798071336763

>  <CONVERGED>  (300) 
0

>  <ENERGY>  (300) 
-31.318625775995752

$$$$
05b7dbb3-3f88-47f3-acad-198a0449d6ef
     RDKit          3D

 16 17  0  0  0  0  0  0  0  0999 V2000
    0.8674   34.4136   -0.3626 C   0  0  0  0  0  0  0  0  0  0  0  0
    0.3926   33.3549    0.2992 C   0  0  0  0  0  0  0  0  0  0  0  0
    0.5952   32.1242   -0.2756 O   0  0  0  0  0  0  0  0  0  0  0  0
   -0.2688   33.4494    1.4952 N   0  0  0  0  0  0  0  0  0  0  0  0
   -0.8455   32.5755    2.3688 C   0  0  0  0  0  0  0  0  0  0  0  0
   -1.4204   32.9719    3.4661 N   0  0  0  0  0  0  0  0  0  0  0  0
   -1.9054   31.9117    4.2058 C   0  0  0  0  0  0  0  0  0  0  0  0
   -2.1165   32.0790    5.5174 C   0  0  0  0  0  0  0  0  0  0  0  0
   -1.9505   30.6568    3.4596 C   0  0  0  0  0  0  0  0  0  0  0  0
   -2.7030   29.5392    3.6095 C   0  0  0  0  0  0  0  0  0  0  0  0
   -3.7723   29.4007    4.6159 C   0  0  0  0  0  0  0  0  0  0  0  0
   -4.4636   28.2524    4.7598 C   0  0  0  0  0  0  0  0  0  0  0  0
   -4.1786   27.1072    3.9181 C   0  0  0  0  0  0  0  0  0  0  0  0
   -3.2465   27.2412    2.9640 C   0  0  0  0  0  0  0  0  0  0  0  0
   -2.5570   28.4154    2.7883 N   0  0  0  0  0  0  0  0  0  0  0  0
   -0.8733   30.8427    2.0860 S   0  0  0  0  0  0  0  0  0  0  0  0
  1  2  2  3
  2  3  1  0
  2  4  1  0
  4  5  1  0
  5  6  2  0
  6  7  1  0
  7  8  2  3
  7  9  1  0
  9 10  2  3
 10 11  1  0
 11 12  2  0
 12 13  1  0
 13 14  2  0
 14 15  1  0
  9 16  1  0
 16  5  1  0
 15 10  1  0
M  END
>  <Energy>  (301) 
-34.577101344959303

>  <Energy_Delta>  (301) 
7.5262503857590559

>  <std_smi>  (301) 
CC(=O)Nc1nc(C)c(-c2ccccn2)s1

>  <enum_smi>  (301) 
C=C(O)Nc1nc(=C)c(=C2C=CC=CN2)s1

>  <enum_code>  (301) 
T

>  <parent_uuid>  (301) 
38ce1dff-635b-49bf-aa41-0dda23e4ce8b

>  <o3da_score>  (301) 
77.007667936334627

>  <o3da_score_rel>  (301) 
0.30657871495132905

>  <o3da_align>  (301) 
0.49688312940310753

>  <RMSD>  (301) 
6.6497843874970686e-05

>  <CONVERGED>  (301) 
0

>  <ENERGY>  (301) 
-34.577101344991888

$$$$
05b7dbb3-3f88-47f3-acad-198a0449d6ef
     RDKit          3D

 16 17  0  0  0  0  0  0  0  0999 V2000
    0.8941   32.3849   -0.5051 C   0  0  0  0  0  0  0  0  0  0  0  0
    0.0508   32.0579    0.4778 C   0  0  0  0  0  0  0  0  0  0  0  0
   -0.2310   33.0346    1.4013 O   0  0  0  0  0  0  0  0  0  0  0  0
   -0.5260   30.8207    0.5939 N   0  0  0  0  0  0  0  0  0  0  0  0
   -1.3920   30.2206    1.4596 C   0  0  0  0  0  0  0  0  0  0  0  0
   -1.7750   28.9865    1.3128 N   0  0  0  0  0  0  0  0  0  0  0  0
   -2.6733   28.6097    2.2900 C   0  0  0  0  0  0  0  0  0  0  0  0
   -3.4767   27.5607    2.0695 C   0  0  0  0  0  0  0  0  0  0  0  0
   -2.7454   29.5465    3.4134 C   0  0  0  0  0  0  0  0  0  0  0  0
   -3.1477   29.3109    4.6886 C   0  0  0  0  0  0  0  0  0  0  0  0
   -3.2163   30.3869    5.7053 C   0  0  0  0  0  0  0  0  0  0  0  0
   -3.5675   30.1384    6.9819 C   0  0  0  0  0  0  0  0  0  0  0  0
   -3.8761   28.7911    7.4122 C   0  0  0  0  0  0  0  0  0  0  0  0
   -3.8241   27.8106    6.5005 C   0  0  0  0  0  0  0  0  0  0  0  0
   -3.5088   28.0522    5.1830 N   0  0  0  0  0  0  0  0  0  0  0  0
   -2.0571   31.0541    2.8530 S   0  0  0  0  0  0  0  0  0  0  0  0
  1  2  2  3
  2  3  1  0
  2  4  1  0
  4  5  1  0
  5  6  2  0
  6  7  1  0
  7  8  2  3
  7  9  1  0
  9 10  2  3
 10 11  1  0
 11 12  2  0
 12 13  1  0
 13 14  2  0
 14 15  1  0
  9 16  1  0
 16  5  1  0
 15 10  1  0
M  END
>  <Energy>  (302) 
-33.188774604988978

>  <Energy_Delta>  (302) 
8.9145771257293802

>  <std_smi>  (302) 
CC(=O)Nc1nc(C)c(-c2ccccn2)s1

>  <enum_smi>  (302) 
C=C(O)Nc1nc(=C)c(=C2C=CC=CN2)s1

>  <enum_code>  (302) 
T

>  <parent_uuid>  (302) 
38ce1dff-635b-49bf-aa41-0dda23e4ce8b

>  <o3da_score>  (302) 
79.402760824748597

>  <o3da_score_rel>  (302) 
0.31611392773723085

>  <o3da_align>  (302) 
0.36863327623642994

>  <RMSD>  (302) 
5.9326476458858662e-05

>  <CONVERGED>  (302) 
0

>  <ENERGY>  (302) 
-33.188774605111249

$$$$
05b7dbb3-3f88-47f3-acad-198a0449d6ef
     RDKit          3D

 16 17  0  0  0  0  0  0  0  0999 V2000
  -10.2706   23.5099    2.0625 C   0  0  0  0  0  0  0  0  0  0  0  0
   -9.1952   24.2386    2.3736 C   0  0  0  0  0  0  0  0  0  0  0  0
   -9.2821   25.5923    2.1592 O   0  0  0  0  0  0  0  0  0  0  0  0
   -8.0430   23.7005    2.8830 N   0  0  0  0  0  0  0  0  0  0  0  0
   -6.8296   24.1787    3.2811 C   0  0  0  0  0  0  0  0  0  0  0  0
   -5.8946   23.3988    3.7388 N   0  0  0  0  0  0  0  0  0  0  0  0
   -4.7461   24.0990    4.0500 C   0  0  0  0  0  0  0  0  0  0  0  0
   -3.5807   23.4418    4.1043 C   0  0  0  0  0  0  0  0  0  0  0  0
   -4.9446   25.5452    4.1008 C   0  0  0  0  0  0  0  0  0  0  0  0
   -4.2746   26.5304    4.7474 C   0  0  0  0  0  0  0  0  0  0  0  0
   -3.1481   26.2871    5.6680 C   0  0  0  0  0  0  0  0  0  0  0  0
   -2.4807   27.3018    6.2526 C   0  0  0  0  0  0  0  0  0  0  0  0
   -2.8559   28.6784    5.9967 C   0  0  0  0  0  0  0  0  0  0  0  0
   -3.9129   28.9079    5.2049 C   0  0  0  0  0  0  0  0  0  0  0  0
   -4.6190   27.8816    4.6278 N   0  0  0  0  0  0  0  0  0  0  0  0
   -6.4257   25.8865    3.2222 S   0  0  0  0  0  0  0  0  0  0  0  0
  1  2  2  3
  2  3  1  0
  2  4  1  0
  4  5  1  0
  5  6  2  0
  6  7  1  0
  7  8  2  3
  7  9  1  0
  9 10  2  3
 10 11  1  0
 11 12  2  0
 12 13  1  0
 13 14  2  0
 14 15  1  0
  9 16  1  0
 16  5  1  0
 15 10  1  0
M  END
>  <Energy>  (303) 
-30.901430723987467

>  <Energy_Delta>  (303) 
11.201921006730892

>  <std_smi>  (303) 
CC(=O)Nc1nc(C)c(-c2ccccn2)s1

>  <enum_smi>  (303) 
C=C(O)Nc1nc(=C)c(=C2C=CC=CN2)s1

>  <enum_code>  (303) 
T

>  <parent_uuid>  (303) 
38ce1dff-635b-49bf-aa41-0dda23e4ce8b

>  <o3da_score>  (303) 
67.128254620921922

>  <o3da_score_rel>  (303) 
0.26724733510463217

>  <o3da_align>  (303) 
0.36954835256046903

>  <RMSD>  (303) 
0.015101261890017589

>  <CONVERGED>  (303) 
0

>  <ENERGY>  (303) 
-34.577101344982815

$$$$
05b7dbb3-3f88-47f3-acad-198a0449d6ef
     RDKit          3D

 16 17  0  0  0  0  0  0  0  0999 V2000
   -0.7024   33.1821    1.0270 C   0  0  0  0  0  0  0  0  0  0  0  0
   -0.0180   32.1675    0.4969 C   0  0  0  0  0  0  0  0  0  0  0  0
    1.1441   32.4895   -0.1675 O   0  0  0  0  0  0  0  0  0  0  0  0
   -0.3294   30.8381    0.4819 N   0  0  0  0  0  0  0  0  0  0  0  0
   -1.1964   30.0482    1.1811 C   0  0  0  0  0  0  0  0  0  0  0  0
   -1.5586   28.8779    0.7398 N   0  0  0  0  0  0  0  0  0  0  0  0
   -2.4354   28.2558    1.6048 C   0  0  0  0  0  0  0  0  0  0  0  0
   -3.2368   27.2883    1.1398 C   0  0  0  0  0  0  0  0  0  0  0  0
   -2.4893   28.8752    2.9304 C   0  0  0  0  0  0  0  0  0  0  0  0
   -2.8610   28.3180    4.1114 C   0  0  0  0  0  0  0  0  0  0  0  0
   -2.9128   29.0992    5.3696 C   0  0  0  0  0  0  0  0  0  0  0  0
   -3.2345   28.5307    6.5478 C   0  0  0  0  0  0  0  0  0  0  0  0
   -3.5267   27.1151    6.6272 C   0  0  0  0  0  0  0  0  0  0  0  0
   -3.4888   26.3989    5.4953 C   0  0  0  0  0  0  0  0  0  0  0  0
   -3.2032   26.9707    4.2767 N   0  0  0  0  0  0  0  0  0  0  0  0
   -1.8269   30.4844    2.7577 S   0  0  0  0  0  0  0  0  0  0  0  0
  1  2  2  3
  2  3  1  0
  2  4  1  0
  4  5  1  0
  5  6  2  0
  6  7  1  0
  7  8  2  3
  7  9  1  0
  9 10  2  3
 10 11  1  0
 11 12  2  0
 12 13  1  0
 13 14  2  0
 14 15  1  0
  9 16  1  0
 16  5  1  0
 15 10  1  0
M  END
>  <Energy>  (304) 
-30.64992820982097

>  <Energy_Delta>  (304) 
11.453423520897388

>  <std_smi>  (304) 
CC(=O)Nc1nc(C)c(-c2ccccn2)s1

>  <enum_smi>  (304) 
C=C(O)Nc1nc(=C)c(=C2C=CC=CN2)s1

>  <enum_code>  (304) 
T

>  <parent_uuid>  (304) 
38ce1dff-635b-49bf-aa41-0dda23e4ce8b

>  <o3da_score>  (304) 
74.72210476821661

>  <o3da_score_rel>  (304) 
0.29747955589614233

>  <o3da_align>  (304) 
0.49978876939081079

>  <RMSD>  (304) 
0.2383893963839947

>  <CONVERGED>  (304) 
0

>  <ENERGY>  (304) 
-27.456143283301376

$$$$
05b7dbb3-3f88-47f3-acad-198a0449d6ef
     RDKit          3D

 16 17  0  0  0  0  0  0  0  0999 V2000
    0.5961   32.4927   -0.5837 C   0  0  0  0  0  0  0  0  0  0  0  0
   -0.0710   32.0662    0.4921 C   0  0  0  0  0  0  0  0  0  0  0  0
   -0.2695   32.9791    1.4988 O   0  0  0  0  0  0  0  0  0  0  0  0
   -0.5494   30.7892    0.6234 N   0  0  0  0  0  0  0  0  0  0  0  0
   -1.2414   30.0946    1.5712 C   0  0  0  0  0  0  0  0  0  0  0  0
   -1.5700   28.8463    1.4135 N   0  0  0  0  0  0  0  0  0  0  0  0
   -2.2372   28.3497    2.5146 C   0  0  0  0  0  0  0  0  0  0  0  0
   -2.2759   27.0255    2.7127 C   0  0  0  0  0  0  0  0  0  0  0  0
   -2.6888   29.3874    3.4441 C   0  0  0  0  0  0  0  0  0  0  0  0
   -3.7014   29.3336    4.3470 C   0  0  0  0  0  0  0  0  0  0  0  0
   -4.0020   30.4594    5.2627 C   0  0  0  0  0  0  0  0  0  0  0  0
   -5.0393   30.4208    6.1214 C   0  0  0  0  0  0  0  0  0  0  0  0
   -5.9167   29.2703    6.1657 C   0  0  0  0  0  0  0  0  0  0  0  0
   -5.6512   28.2432    5.3473 C   0  0  0  0  0  0  0  0  0  0  0  0
   -4.5716   28.2472    4.4940 N   0  0  0  0  0  0  0  0  0  0  0  0
   -1.7595   30.8243    3.0803 S   0  0  0  0  0  0  0  0  0  0  0  0
  1  2  2  3
  2  3  1  0
  2  4  1  0
  4  5  1  0
  5  6  2  0
  6  7  1  0
  7  8  2  3
  7  9  1  0
  9 10  2  3
 10 11  1  0
 11 12  2  0
 12 13  1  0
 13 14  2  0
 14 15  1  0
  9 16  1  0
 16  5  1  0
 15 10  1  0
M  END
>  <Energy>  (305) 
-29.127531180173197

>  <Energy_Delta>  (305) 
12.975820550545162

>  <std_smi>  (305) 
CC(=O)Nc1nc(C)c(-c2ccccn2)s1

>  <enum_smi>  (305) 
C=C(O)Nc1nc(=C)c(=C2C=CC=CN2)s1

>  <enum_code>  (305) 
T

>  <parent_uuid>  (305) 
38ce1dff-635b-49bf-aa41-0dda23e4ce8b

>  <o3da_score>  (305) 
93.796335707057011

>  <o3da_score_rel>  (305) 
0.3734168406708111

>  <o3da_align>  (305) 
0.4521839483380955

>  <RMSD>  (305) 
0.016698137453976435

>  <CONVERGED>  (305) 
0

>  <ENERGY>  (305) 
-33.188774605227081

$$$$
05b7dbb3-3f88-47f3-acad-198a0449d6ef
     RDKit          3D

 16 17  0  0  0  0  0  0  0  0999 V2000
   -3.6491   23.6600    3.9725 C   0  0  0  0  0  0  0  0  0  0  0  0
   -4.7957   24.3262    4.1148 C   0  0  0  0  0  0  0  0  0  0  0  0
   -5.9507   23.5775    4.0829 O   0  0  0  0  0  0  0  0  0  0  0  0
   -4.9904   25.6599    4.3330 N   0  0  0  0  0  0  0  0  0  0  0  0
   -4.2165   26.7766    4.1965 C   0  0  0  0  0  0  0  0  0  0  0  0
   -4.5128   27.8892    4.8050 N   0  0  0  0  0  0  0  0  0  0  0  0
   -3.5999   28.8865    4.5244 C   0  0  0  0  0  0  0  0  0  0  0  0
   -3.4724   29.9091    5.3793 C   0  0  0  0  0  0  0  0  0  0  0  0
   -2.7441   28.5826    3.3810 C   0  0  0  0  0  0  0  0  0  0  0  0
   -2.0610   29.3779    2.5217 C   0  0  0  0  0  0  0  0  0  0  0  0
   -2.1146   30.8515    2.5478 C   0  0  0  0  0  0  0  0  0  0  0  0
   -1.3815   31.6006    1.7001 C   0  0  0  0  0  0  0  0  0  0  0  0
   -0.5128   30.9752    0.7222 C   0  0  0  0  0  0  0  0  0  0  0  0
   -0.4984   29.6364    0.6549 C   0  0  0  0  0  0  0  0  0  0  0  0
   -1.2617   28.8640    1.4944 N   0  0  0  0  0  0  0  0  0  0  0  0
   -2.8217   26.8470    3.1348 S   0  0  0  0  0  0  0  0  0  0  0  0
  1  2  2  3
  2  3  1  0
  2  4  1  0
  4  5  1  0
  5  6  2  0
  6  7  1  0
  7  8  2  3
  7  9  1  0
  9 10  2  3
 10 11  1  0
 11 12  2  0
 12 13  1  0
 13 14  2  0
 14 15  1  0
  9 16  1  0
 16  5  1  0
 15 10  1  0
M  END
>  <Energy>  (306) 
-29.082760664206486

>  <Energy_Delta>  (306) 
13.020591066511873

>  <std_smi>  (306) 
CC(=O)Nc1nc(C)c(-c2ccccn2)s1

>  <enum_smi>  (306) 
C=C(O)Nc1nc(=C)c(=C2C=CC=CN2)s1

>  <enum_code>  (306) 
T

>  <parent_uuid>  (306) 
38ce1dff-635b-49bf-aa41-0dda23e4ce8b

>  <o3da_score>  (306) 
78.884368158918221

>  <o3da_score_rel>  (306) 
0.31405013121424225

>  <o3da_align>  (306) 
0.51024692159685026

>  <RMSD>  (306) 
6.0522639659803906e-05

>  <CONVERGED>  (306) 
0

>  <ENERGY>  (306) 
-29.082760664466008

$$$$
05b7dbb3-3f88-47f3-acad-198a0449d6ef
     RDKit          3D

 16 17  0  0  0  0  0  0  0  0999 V2000
   -9.8904   24.9381    2.9940 C   0  0  0  0  0  0  0  0  0  0  0  0
   -9.1222   24.1714    2.2188 C   0  0  0  0  0  0  0  0  0  0  0  0
   -9.7091   23.6607    1.0829 O   0  0  0  0  0  0  0  0  0  0  0  0
   -7.8290   23.7793    2.4141 N   0  0  0  0  0  0  0  0  0  0  0  0
   -6.8077   24.2074    3.2130 C   0  0  0  0  0  0  0  0  0  0  0  0
   -5.7828   23.4476    3.4741 N   0  0  0  0  0  0  0  0  0  0  0  0
   -4.8716   24.0797    4.2967 C   0  0  0  0  0  0  0  0  0  0  0  0
   -4.0269   23.3361    5.0223 C   0  0  0  0  0  0  0  0  0  0  0  0
   -5.0850   25.5208    4.3970 C   0  0  0  0  0  0  0  0  0  0  0  0
   -4.2482   26.5434    4.6996 C   0  0  0  0  0  0  0  0  0  0  0  0
   -2.8036   26.3769    4.9455 C   0  0  0  0  0  0  0  0  0  0  0  0
   -2.0201   27.4192    5.2874 C   0  0  0  0  0  0  0  0  0  0  0  0
   -2.5770   28.7512    5.4200 C   0  0  0  0  0  0  0  0  0  0  0  0
   -3.8781   28.9218    5.1459 C   0  0  0  0  0  0  0  0  0  0  0  0
   -4.6794   27.8728    4.7699 N   0  0  0  0  0  0  0  0  0  0  0  0
   -6.7338   25.8278    3.8812 S   0  0  0  0  0  0  0  0  0  0  0  0
  1  2  2  3
  2  3  1  0
  2  4  1  0
  4  5  1  0
  5  6  2  0
  6  7  1  0
  7  8  2  3
  7  9  1  0
  9 10  2  3
 10 11  1  0
 11 12  2  0
 12 13  1  0
 13 14  2  0
 14 15  1  0
  9 16  1  0
 16  5  1  0
 15 10  1  0
M  END
>  <Energy>  (307) 
-29.082760664178835

>  <Energy_Delta>  (307) 
13.020591066539524

>  <std_smi>  (307) 
CC(=O)Nc1nc(C)c(-c2ccccn2)s1

>  <enum_smi>  (307) 
C=C(O)Nc1nc(=C)c(=C2C=CC=CN2)s1

>  <enum_code>  (307) 
T

>  <parent_uuid>  (307) 
38ce1dff-635b-49bf-aa41-0dda23e4ce8b

>  <o3da_score>  (307) 
67.365484072352729

>  <o3da_score_rel>  (307) 
0.26819178001923982

>  <o3da_align>  (307) 
0.36216806010387481

>  <RMSD>  (307) 
6.6366071655710101e-05

>  <CONVERGED>  (307) 
0

>  <ENERGY>  (307) 
-29.082760664461837

$$$$
06cb7932-9c36-43b8-b595-6b854eb1da1a
     RDKit          3D

 16 17  0  0  0  0  0  0  0  0999 V2000
    0.8207   32.4931   -0.5510 C   0  0  0  0  0  0  0  0  0  0  0  0
    0.0456   32.1069    0.4649 C   0  0  0  0  0  0  0  0  0  0  0  0
   -0.1911   33.0184    1.4681 O   0  0  0  0  0  0  0  0  0  0  0  0
   -0.5255   30.8677    0.5711 N   0  0  0  0  0  0  0  0  0  0  0  0
   -1.3266   30.3649    1.5515 C   0  0  0  0  0  0  0  0  0  0  0  0
   -1.7223   30.9829    2.6188 N   0  0  0  0  0  0  0  0  0  0  0  0
   -2.5296   30.1867    3.4120 C   0  0  0  0  0  0  0  0  0  0  0  0
   -3.0047   30.7131    4.5483 C   0  0  0  0  0  0  0  0  0  0  0  0
   -2.7558   28.8327    2.8730 C   0  0  0  0  0  0  0  0  0  0  0  0
   -3.4888   27.8110    3.3920 C   0  0  0  0  0  0  0  0  0  0  0  0
   -3.6154   26.5113    2.7257 C   0  0  0  0  0  0  0  0  0  0  0  0
   -4.3324   25.4960    3.2228 C   0  0  0  0  0  0  0  0  0  0  0  0
   -5.0615   25.6218    4.5076 C   0  0  0  0  0  0  0  0  0  0  0  0
   -4.8585   26.9914    5.0952 C   0  0  0  0  0  0  0  0  0  0  0  0
   -4.1574   27.9599    4.5929 N   0  0  0  0  0  0  0  0  0  0  0  0
   -1.8779   28.7232    1.3542 S   0  0  0  0  0  0  0  0  0  0  0  0
  1  2  2  3
  2  3  1  0
  2  4  1  0
  4  5  1  0
  5  6  2  0
  6  7  1  0
  7  8  2  3
  7  9  1  0
  9 10  2  3
 10 11  1  0
 11 12  2  0
 12 13  1  0
 13 14  1  0
 14 15  2  0
  9 16  1  0
 16  5  1  0
 15 10  1  0
M  END
>  <Energy>  (308) 
-32.50327061909698

>  <Energy_Delta>  (308) 
0

>  <std_smi>  (308) 
CC(=O)Nc1nc(C)c(-c2ccccn2)s1

>  <enum_smi>  (308) 
C=C(O)Nc1nc(=C)c(=C2C=CCC=N2)s1

>  <enum_code>  (308) 
T

>  <parent_uuid>  (308) 
38ce1dff-635b-49bf-aa41-0dda23e4ce8b

>  <o3da_score>  (308) 
94.684399555652604

>  <o3da_score_rel>  (308) 
0.37695235188408738

>  <o3da_align>  (308) 
0.42494304497731433

>  <RMSD>  (308) 
6.9217804083213043e-05

>  <CONVERGED>  (308) 
0

>  <ENERGY>  (308) 
-32.503270618830577

$$$$
06cb7932-9c36-43b8-b595-6b854eb1da1a
     RDKit          3D

 16 17  0  0  0  0  0  0  0  0999 V2000
    0.5605   32.6107   -0.7213 C   0  0  0  0  0  0  0  0  0  0  0  0
   -0.0620   32.1756    0.3764 C   0  0  0  0  0  0  0  0  0  0  0  0
   -0.3279   33.0945    1.3654 O   0  0  0  0  0  0  0  0  0  0  0  0
   -0.4508   30.8796    0.5794 N   0  0  0  0  0  0  0  0  0  0  0  0
   -1.0866   30.3213    1.6468 C   0  0  0  0  0  0  0  0  0  0  0  0
   -1.4710   30.9304    2.7280 N   0  0  0  0  0  0  0  0  0  0  0  0
   -2.0578   30.0481    3.6148 C   0  0  0  0  0  0  0  0  0  0  0  0
   -2.1053   30.3718    4.9137 C   0  0  0  0  0  0  0  0  0  0  0  0
   -2.3969   28.7551    3.0151 C   0  0  0  0  0  0  0  0  0  0  0  0
   -3.3212   27.8231    3.3579 C   0  0  0  0  0  0  0  0  0  0  0  0
   -4.2877   28.0147    4.4348 C   0  0  0  0  0  0  0  0  0  0  0  0
   -5.0798   27.0331    4.8837 C   0  0  0  0  0  0  0  0  0  0  0  0
   -5.0311   25.6746    4.2862 C   0  0  0  0  0  0  0  0  0  0  0  0
   -4.1822   25.6822    3.0425 C   0  0  0  0  0  0  0  0  0  0  0  0
   -3.4232   26.6489    2.6284 N   0  0  0  0  0  0  0  0  0  0  0  0
   -1.4339   28.6101    1.5516 S   0  0  0  0  0  0  0  0  0  0  0  0
  1  2  2  3
  2  3  1  0
  2  4  1  0
  4  5  1  0
  5  6  2  0
  6  7  1  0
  7  8  2  3
  7  9  1  0
  9 10  2  3
 10 11  1  0
 11 12  2  0
 12 13  1  0
 13 14  1  0
 14 15  2  0
  9 16  1  0
 16  5  1  0
 15 10  1  0
M  END
>  <Energy>  (309) 
-29.718707192474369

>  <Energy_Delta>  (309) 
2.7845634266226114

>  <std_smi>  (309) 
CC(=O)Nc1nc(C)c(-c2ccccn2)s1

>  <enum_smi>  (309) 
C=C(O)Nc1nc(=C)c(=C2C=CCC=N2)s1

>  <enum_code>  (309) 
T

>  <parent_uuid>  (309) 
38ce1dff-635b-49bf-aa41-0dda23e4ce8b

>  <o3da_score>  (309) 
88.685129755207853

>  <o3da_score_rel>  (309) 
0.35306838713933952

>  <o3da_align>  (309) 
0.4888220899944023

>  <RMSD>  (309) 
6.8375023419564663e-05

>  <CONVERGED>  (309) 
0

>  <ENERGY>  (309) 
-29.718707192527308

$$$$
06cb7932-9c36-43b8-b595-6b854eb1da1a
     RDKit          3D

 16 17  0  0  0  0  0  0  0  0999 V2000
    0.7341   32.6123   -0.5869 C   0  0  0  0  0  0  0  0  0  0  0  0
    0.0009   32.1364    0.4219 C   0  0  0  0  0  0  0  0  0  0  0  0
   -0.3173   33.0023    1.4429 O   0  0  0  0  0  0  0  0  0  0  0  0
   -0.4519   30.8480    0.5049 N   0  0  0  0  0  0  0  0  0  0  0  0
   -1.2001   30.2518    1.4744 C   0  0  0  0  0  0  0  0  0  0  0  0
   -1.6489   30.8058    2.5604 N   0  0  0  0  0  0  0  0  0  0  0  0
   -2.3969   29.9122    3.3029 C   0  0  0  0  0  0  0  0  0  0  0  0
   -3.2866   30.3882    4.1838 C   0  0  0  0  0  0  0  0  0  0  0  0
   -2.2349   28.5194    2.8781 C   0  0  0  0  0  0  0  0  0  0  0  0
   -2.4063   27.3524    3.5483 C   0  0  0  0  0  0  0  0  0  0  0  0
   -2.7256   27.2876    4.9712 C   0  0  0  0  0  0  0  0  0  0  0  0
   -3.0634   26.1490    5.5891 C   0  0  0  0  0  0  0  0  0  0  0  0
   -3.1140   24.8616    4.8509 C   0  0  0  0  0  0  0  0  0  0  0  0
   -2.5319   25.0281    3.4721 C   0  0  0  0  0  0  0  0  0  0  0  0
   -2.2113   26.1449    2.8961 N   0  0  0  0  0  0  0  0  0  0  0  0
   -1.5894   28.5626    1.2435 S   0  0  0  0  0  0  0  0  0  0  0  0
  1  2  2  3
  2  3  1  0
  2  4  1  0
  4  5  1  0
  5  6  2  0
  6  7  1  0
  7  8  2  3
  7  9  1  0
  9 10  2  3
 10 11  1  0
 11 12  2  0
 12 13  1  0
 13 14  1  0
 14 15  2  0
  9 16  1  0
 16  5  1  0
 15 10  1  0
M  END
>  <Energy>  (310) 
-29.718707192081705

>  <Energy_Delta>  (310) 
2.784563427015275

>  <std_smi>  (310) 
CC(=O)Nc1nc(C)c(-c2ccccn2)s1

>  <enum_smi>  (310) 
C=C(O)Nc1nc(=C)c(=C2C=CCC=N2)s1

>  <enum_code>  (310) 
T

>  <parent_uuid>  (310) 
38ce1dff-635b-49bf-aa41-0dda23e4ce8b

>  <o3da_score>  (310) 
85.197171840887961

>  <o3da_score_rel>  (310) 
0.33918231989652192

>  <o3da_align>  (310) 
0.41200109160007348

>  <RMSD>  (310) 
7.8946436382995995e-05

>  <CONVERGED>  (310) 
0

>  <ENERGY>  (310) 
-29.718707192470731

$$$$
06cb7932-9c36-43b8-b595-6b854eb1da1a
     RDKit          3D

 16 17  0  0  0  0  0  0  0  0999 V2000
   -2.8594   24.1112    4.1318 C   0  0  0  0  0  0  0  0  0  0  0  0
   -3.3383   24.7880    5.1768 C   0  0  0  0  0  0  0  0  0  0  0  0
   -3.9184   24.0521    6.1850 O   0  0  0  0  0  0  0  0  0  0  0  0
   -3.3178   26.1385    5.3821 N   0  0  0  0  0  0  0  0  0  0  0  0
   -2.9110   27.1630    4.5740 C   0  0  0  0  0  0  0  0  0  0  0  0
   -2.5818   27.1498    3.3260 N   0  0  0  0  0  0  0  0  0  0  0  0
   -2.2289   28.3990    2.8513 C   0  0  0  0  0  0  0  0  0  0  0  0
   -1.8784   28.5027    1.5627 C   0  0  0  0  0  0  0  0  0  0  0  0
   -2.2969   29.4673    3.8623 C   0  0  0  0  0  0  0  0  0  0  0  0
   -2.0060   30.7905    3.7389 C   0  0  0  0  0  0  0  0  0  0  0  0
   -2.1258   31.7331    4.8556 C   0  0  0  0  0  0  0  0  0  0  0  0
   -1.8399   33.0368    4.7526 C   0  0  0  0  0  0  0  0  0  0  0  0
   -1.3733   33.6262    3.4746 C   0  0  0  0  0  0  0  0  0  0  0  0
   -1.2930   32.5701    2.4068 C   0  0  0  0  0  0  0  0  0  0  0  0
   -1.5764   31.3110    2.5321 N   0  0  0  0  0  0  0  0  0  0  0  0
   -2.8424   28.7290    5.3592 S   0  0  0  0  0  0  0  0  0  0  0  0
  1  2  2  3
  2  3  1  0
  2  4  1  0
  4  5  1  0
  5  6  2  0
  6  7  1  0
  7  8  2  3
  7  9  1  0
  9 10  2  3
 10 11  1  0
 11 12  2  0
 12 13  1  0
 13 14  1  0
 14 15  2  0
  9 16  1  0
 16  5  1  0
 15 10  1  0
M  END
>  <Energy>  (311) 
-27.726976947536468

>  <Energy_Delta>  (311) 
4.7762936715605129

>  <std_smi>  (311) 
CC(=O)Nc1nc(C)c(-c2ccccn2)s1

>  <enum_smi>  (311) 
C=C(O)Nc1nc(=C)c(=C2C=CCC=N2)s1

>  <enum_code>  (311) 
T

>  <parent_uuid>  (311) 
38ce1dff-635b-49bf-aa41-0dda23e4ce8b

>  <o3da_score>  (311) 
68.833074934904573

>  <o3da_score_rel>  (311) 
0.27403447247796264

>  <o3da_align>  (311) 
0.58231170121815046

>  <RMSD>  (311) 
0.1107675875388115

>  <CONVERGED>  (311) 
0

>  <ENERGY>  (311) 
-22.8324949087901

$$$$
06cb7932-9c36-43b8-b595-6b854eb1da1a
     RDKit          3D

 16 17  0  0  0  0  0  0  0  0999 V2000
   -5.7841   23.3671    4.0089 C   0  0  0  0  0  0  0  0  0  0  0  0
   -5.0769   24.4378    3.6380 C   0  0  0  0  0  0  0  0  0  0  0  0
   -4.3591   24.3320    2.4719 O   0  0  0  0  0  0  0  0  0  0  0  0
   -5.0426   25.6032    4.3571 N   0  0  0  0  0  0  0  0  0  0  0  0
   -4.4336   26.8170    4.2307 C   0  0  0  0  0  0  0  0  0  0  0  0
   -4.5959   27.7621    5.1043 N   0  0  0  0  0  0  0  0  0  0  0  0
   -3.8911   28.9087    4.7873 C   0  0  0  0  0  0  0  0  0  0  0  0
   -3.9846   29.9521    5.6218 C   0  0  0  0  0  0  0  0  0  0  0  0
   -3.1164   28.8111    3.5392 C   0  0  0  0  0  0  0  0  0  0  0  0
   -2.3230   29.7411    2.9423 C   0  0  0  0  0  0  0  0  0  0  0  0
   -1.6121   29.4840    1.6861 C   0  0  0  0  0  0  0  0  0  0  0  0
   -0.8279   30.3877    1.0858 C   0  0  0  0  0  0  0  0  0  0  0  0
   -0.6222   31.7372    1.6641 C   0  0  0  0  0  0  0  0  0  0  0  0
   -1.3969   31.8838    2.9449 C   0  0  0  0  0  0  0  0  0  0  0  0
   -2.1513   30.9913    3.5072 N   0  0  0  0  0  0  0  0  0  0  0  0
   -3.3862   27.2038    2.8876 S   0  0  0  0  0  0  0  0  0  0  0  0
  1  2  2  3
  2  3  1  0
  2  4  1  0
  4  5  1  0
  5  6  2  0
  6  7  1  0
  7  8  2  3
  7  9  1  0
  9 10  2  3
 10 11  1  0
 11 12  2  0
 12 13  1  0
 13 14  1  0
 14 15  2  0
  9 16  1  0
 16  5  1  0
 15 10  1  0
M  END
>  <Energy>  (312) 
-25.002872257549633

>  <Energy_Delta>  (312) 
7.5003983615473473

>  <std_smi>  (312) 
CC(=O)Nc1nc(C)c(-c2ccccn2)s1

>  <enum_smi>  (312) 
C=C(O)Nc1nc(=C)c(=C2C=CCC=N2)s1

>  <enum_code>  (312) 
T

>  <parent_uuid>  (312) 
38ce1dff-635b-49bf-aa41-0dda23e4ce8b

>  <o3da_score>  (312) 
73.976831678892282

>  <o3da_score_rel>  (312) 
0.29451251544243379

>  <o3da_align>  (312) 
0.53129641973056552

>  <RMSD>  (312) 
0.00033682866910435532

>  <CONVERGED>  (312) 
0

>  <ENERGY>  (312) 
-25.002872165048711

$$$$
06cb7932-9c36-43b8-b595-6b854eb1da1a
     RDKit          3D

 16 17  0  0  0  0  0  0  0  0999 V2000
    0.3237   32.9145    1.6023 C   0  0  0  0  0  0  0  0  0  0  0  0
    0.2003   32.0303    0.6111 C   0  0  0  0  0  0  0  0  0  0  0  0
    0.9684   32.2416   -0.5116 O   0  0  0  0  0  0  0  0  0  0  0  0
   -0.5976   30.9223    0.5717 N   0  0  0  0  0  0  0  0  0  0  0  0
   -1.5335   30.4565    1.4517 C   0  0  0  0  0  0  0  0  0  0  0  0
   -2.0320   31.0146    2.5080 N   0  0  0  0  0  0  0  0  0  0  0  0
   -2.9858   30.2181    3.1082 C   0  0  0  0  0  0  0  0  0  0  0  0
   -3.8944   30.7890    3.9099 C   0  0  0  0  0  0  0  0  0  0  0  0
   -2.9805   28.8370    2.6258 C   0  0  0  0  0  0  0  0  0  0  0  0
   -3.3986   27.6832    3.2040 C   0  0  0  0  0  0  0  0  0  0  0  0
   -3.8891   27.6105    4.5769 C   0  0  0  0  0  0  0  0  0  0  0  0
   -4.4583   26.5121    5.0886 C   0  0  0  0  0  0  0  0  0  0  0  0
   -4.6077   25.2774    4.2776 C   0  0  0  0  0  0  0  0  0  0  0  0
   -3.8519   25.4096    2.9819 C   0  0  0  0  0  0  0  0  0  0  0  0
   -3.3077   26.4873    2.5085 N   0  0  0  0  0  0  0  0  0  0  0  0
   -2.1484   28.8504    1.0796 S   0  0  0  0  0  0  0  0  0  0  0  0
  1  2  2  3
  2  3  1  0
  2  4  1  0
  4  5  1  0
  5  6  2  0
  6  7  1  0
  7  8  2  3
  7  9  1  0
  9 10  2  3
 10 11  1  0
 11 12  2  0
 12 13  1  0
 13 14  1  0
 14 15  2  0
  9 16  1  0
 16  5  1  0
 15 10  1  0
M  END
>  <Energy>  (313) 
-24.824640940436112

>  <Energy_Delta>  (313) 
7.6786296786608688

>  <std_smi>  (313) 
CC(=O)Nc1nc(C)c(-c2ccccn2)s1

>  <enum_smi>  (313) 
C=C(O)Nc1nc(=C)c(=C2C=CCC=N2)s1

>  <enum_code>  (313) 
T

>  <parent_uuid>  (313) 
38ce1dff-635b-49bf-aa41-0dda23e4ce8b

>  <o3da_score>  (313) 
86.012968426527664

>  <o3da_score_rel>  (313) 
0.34243012463583533

>  <o3da_align>  (313) 
0.51758055546362591

>  <RMSD>  (313) 
0.096391095537345359

>  <CONVERGED>  (313) 
0

>  <ENERGY>  (313) 
-20.376254741562843

$$$$
06cb7932-9c36-43b8-b595-6b854eb1da1a
     RDKit          3D

 16 17  0  0  0  0  0  0  0  0999 V2000
   -0.9635   33.1399    1.0264 C   0  0  0  0  0  0  0  0  0  0  0  0
   -0.3323   32.1081    0.4637 C   0  0  0  0  0  0  0  0  0  0  0  0
    0.5721   32.3991   -0.5325 O   0  0  0  0  0  0  0  0  0  0  0  0
   -0.4773   30.7805    0.7500 N   0  0  0  0  0  0  0  0  0  0  0  0
   -1.2065   30.1429    1.7139 C   0  0  0  0  0  0  0  0  0  0  0  0
   -1.8556   30.6289    2.7229 N   0  0  0  0  0  0  0  0  0  0  0  0
   -2.4383   29.6369    3.4851 C   0  0  0  0  0  0  0  0  0  0  0  0
   -2.7517   29.9003    4.7604 C   0  0  0  0  0  0  0  0  0  0  0  0
   -2.4693   28.3334    2.8214 C   0  0  0  0  0  0  0  0  0  0  0  0
   -3.2837   27.2613    2.9877 C   0  0  0  0  0  0  0  0  0  0  0  0
   -4.4362   27.2657    3.8834 C   0  0  0  0  0  0  0  0  0  0  0  0
   -5.1345   26.1614    4.1754 C   0  0  0  0  0  0  0  0  0  0  0  0
   -4.7795   24.8495    3.5776 C   0  0  0  0  0  0  0  0  0  0  0  0
   -3.7417   25.0301    2.5016 C   0  0  0  0  0  0  0  0  0  0  0  0
   -3.0791   26.1133    2.2377 N   0  0  0  0  0  0  0  0  0  0  0  0
   -1.2627   28.3922    1.5470 S   0  0  0  0  0  0  0  0  0  0  0  0
  1  2  2  3
  2  3  1  0
  2  4  1  0
  4  5  1  0
  5  6  2  0
  6  7  1  0
  7  8  2  3
  7  9  1  0
  9 10  2  3
 10 11  1  0
 11 12  2  0
 12 13  1  0
 13 14  1  0
 14 15  2  0
  9 16  1  0
 16  5  1  0
 15 10  1  0
M  END
>  <Energy>  (314) 
-24.82464094039792

>  <Energy_Delta>  (314) 
7.6786296786990604

>  <std_smi>  (314) 
CC(=O)Nc1nc(C)c(-c2ccccn2)s1

>  <enum_smi>  (314) 
C=C(O)Nc1nc(=C)c(=C2C=CCC=N2)s1

>  <enum_code>  (314) 
T

>  <parent_uuid>  (314) 
38ce1dff-635b-49bf-aa41-0dda23e4ce8b

>  <o3da_score>  (314) 
79.181847194445837

>  <o3da_score_rel>  (314) 
0.31523443847715554

>  <o3da_align>  (314) 
0.55486930593100769

>  <RMSD>  (314) 
0.096378258594328275

>  <CONVERGED>  (314) 
0

>  <ENERGY>  (314) 
-20.376254741555275

$$$$
06cb7932-9c36-43b8-b595-6b854eb1da1a
     RDKit          3D

 16 17  0  0  0  0  0  0  0  0999 V2000
    0.5596   32.5121   -0.6214 C   0  0  0  0  0  0  0  0  0  0  0  0
   -0.0731   32.0745    0.4707 C   0  0  0  0  0  0  0  0  0  0  0  0
   -0.2138   32.9689    1.5038 O   0  0  0  0  0  0  0  0  0  0  0  0
   -0.5735   30.8050    0.5922 N   0  0  0  0  0  0  0  0  0  0  0  0
   -1.2328   30.1021    1.5574 C   0  0  0  0  0  0  0  0  0  0  0  0
   -1.6052   28.8676    1.3830 N   0  0  0  0  0  0  0  0  0  0  0  0
   -2.2272   28.3576    2.5053 C   0  0  0  0  0  0  0  0  0  0  0  0
   -2.2698   27.0297    2.6756 C   0  0  0  0  0  0  0  0  0  0  0  0
   -2.6100   29.3828    3.4756 C   0  0  0  0  0  0  0  0  0  0  0  0
   -3.5695   29.3983    4.4344 C   0  0  0  0  0  0  0  0  0  0  0  0
   -4.5351   28.3190    4.6164 C   0  0  0  0  0  0  0  0  0  0  0  0
   -5.3670   28.2570    5.6635 C   0  0  0  0  0  0  0  0  0  0  0  0
   -5.3662   29.3130    6.7074 C   0  0  0  0  0  0  0  0  0  0  0  0
   -4.5067   30.4719    6.2765 C   0  0  0  0  0  0  0  0  0  0  0  0
   -3.7086   30.5068    5.2548 N   0  0  0  0  0  0  0  0  0  0  0  0
   -1.6436   30.8018    3.1108 S   0  0  0  0  0  0  0  0  0  0  0  0
  1  2  2  3
  2  3  1  0
  2  4  1  0
  4  5  1  0
  5  6  2  0
  6  7  1  0
  7  8  2  3
  7  9  1  0
  9 10  2  3
 10 11  1  0
 11 12  2  0
 12 13  1  0
 13 14  1  0
 14 15  2  0
  9 16  1  0
 16  5  1  0
 15 10  1  0
M  END
>  <Energy>  (315) 
-22.414752776644185

>  <Energy_Delta>  (315) 
10.088517842452795

>  <std_smi>  (315) 
CC(=O)Nc1nc(C)c(-c2ccccn2)s1

>  <enum_smi>  (315) 
C=C(O)Nc1nc(=C)c(=C2C=CCC=N2)s1

>  <enum_code>  (315) 
T

>  <parent_uuid>  (315) 
38ce1dff-635b-49bf-aa41-0dda23e4ce8b

>  <o3da_score>  (315) 
86.002118235436171

>  <o3da_score_rel>  (315) 
0.34238692844861207

>  <o3da_align>  (315) 
0.42348372884599195

>  <RMSD>  (315) 
7.1957397284997749e-05

>  <CONVERGED>  (315) 
0

>  <ENERGY>  (315) 
-22.41475277606353

$$$$
06cb7932-9c36-43b8-b595-6b854eb1da1a
     RDKit          3D

 16 17  0  0  0  0  0  0  0  0999 V2000
   -2.7420   25.8430    5.3451 C   0  0  0  0  0  0  0  0  0  0  0  0
   -3.1654   25.3178    4.1946 C   0  0  0  0  0  0  0  0  0  0  0  0
   -4.0268   24.2475    4.2870 O   0  0  0  0  0  0  0  0  0  0  0  0
   -2.8313   25.6680    2.9180 N   0  0  0  0  0  0  0  0  0  0  0  0
   -2.2489   26.7607    2.3420 C   0  0  0  0  0  0  0  0  0  0  0  0
   -1.7269   26.7001    1.1541 N   0  0  0  0  0  0  0  0  0  0  0  0
   -1.2130   27.9139    0.7362 C   0  0  0  0  0  0  0  0  0  0  0  0
   -0.5824   27.9546   -0.4448 C   0  0  0  0  0  0  0  0  0  0  0  0
   -1.4248   29.0151    1.6894 C   0  0  0  0  0  0  0  0  0  0  0  0
   -1.1093   30.3326    1.5678 C   0  0  0  0  0  0  0  0  0  0  0  0
   -1.3932   31.3126    2.6207 C   0  0  0  0  0  0  0  0  0  0  0  0
   -1.0953   32.6134    2.5156 C   0  0  0  0  0  0  0  0  0  0  0  0
   -0.4447   33.1605    1.3011 C   0  0  0  0  0  0  0  0  0  0  0  0
   -0.2013   32.0673    0.2971 C   0  0  0  0  0  0  0  0  0  0  0  0
   -0.4994   30.8115    0.4227 N   0  0  0  0  0  0  0  0  0  0  0  0
   -2.2197   28.3337    3.0970 S   0  0  0  0  0  0  0  0  0  0  0  0
  1  2  2  3
  2  3  1  0
  2  4  1  0
  4  5  1  0
  5  6  2  0
  6  7  1  0
  7  8  2  3
  7  9  1  0
  9 10  2  3
 10 11  1  0
 11 12  2  0
 12 13  1  0
 13 14  1  0
 14 15  2  0
  9 16  1  0
 16  5  1  0
 15 10  1  0
M  END
>  <Energy>  (316) 
-22.249544428872959

>  <Energy_Delta>  (316) 
10.253726190224022

>  <std_smi>  (316) 
CC(=O)Nc1nc(C)c(-c2ccccn2)s1

>  <enum_smi>  (316) 
C=C(O)Nc1nc(=C)c(=C2C=CCC=N2)s1

>  <enum_code>  (316) 
T

>  <parent_uuid>  (316) 
38ce1dff-635b-49bf-aa41-0dda23e4ce8b

>  <o3da_score>  (316) 
73.867133447233769

>  <o3da_score_rel>  (316) 
0.29407579084350027

>  <o3da_align>  (316) 
0.35203908969217679

>  <RMSD>  (316) 
0.25599043902121471

>  <CONVERGED>  (316) 
0

>  <ENERGY>  (316) 
-19.309988634098087

$$$$
06cb7932-9c36-43b8-b595-6b854eb1da1a
     RDKit          3D

 16 17  0  0  0  0  0  0  0  0999 V2000
    0.3839   32.6726    1.7754 C   0  0  0  0  0  0  0  0  0  0  0  0
    0.0425   32.1368    0.6027 C   0  0  0  0  0  0  0  0  0  0  0  0
    0.3857   32.8509   -0.5237 O   0  0  0  0  0  0  0  0  0  0  0  0
   -0.5728   30.9443    0.3501 N   0  0  0  0  0  0  0  0  0  0  0  0
   -1.2816   30.0515    1.1024 C   0  0  0  0  0  0  0  0  0  0  0  0
   -1.4561   28.8215    0.7095 N   0  0  0  0  0  0  0  0  0  0  0  0
   -2.2496   28.1116    1.5887 C   0  0  0  0  0  0  0  0  0  0  0  0
   -2.8762   27.0111    1.1522 C   0  0  0  0  0  0  0  0  0  0  0  0
   -2.4452   28.7856    2.8719 C   0  0  0  0  0  0  0  0  0  0  0  0
   -2.7465   28.3007    4.1026 C   0  0  0  0  0  0  0  0  0  0  0  0
   -2.8471   26.8742    4.3963 C   0  0  0  0  0  0  0  0  0  0  0  0
   -3.3116   26.4026    5.5600 C   0  0  0  0  0  0  0  0  0  0  0  0
   -3.7401   27.3227    6.6439 C   0  0  0  0  0  0  0  0  0  0  0  0
   -3.3574   28.7395    6.3069 C   0  0  0  0  0  0  0  0  0  0  0  0
   -2.9074   29.1705    5.1697 N   0  0  0  0  0  0  0  0  0  0  0  0
   -2.0678   30.4787    2.6079 S   0  0  0  0  0  0  0  0  0  0  0  0
  1  2  2  3
  2  3  1  0
  2  4  1  0
  4  5  1  0
  5  6  2  0
  6  7  1  0
  7  8  2  3
  7  9  1  0
  9 10  2  3
 10 11  1  0
 11 12  2  0
 12 13  1  0
 13 14  1  0
 14 15  2  0
  9 16  1  0
 16  5  1  0
 15 10  1  0
M  END
>  <Energy>  (317) 
-19.192705297753555

>  <Energy_Delta>  (317) 
13.310565321343425

>  <std_smi>  (317) 
CC(=O)Nc1nc(C)c(-c2ccccn2)s1

>  <enum_smi>  (317) 
C=C(O)Nc1nc(=C)c(=C2C=CCC=N2)s1

>  <enum_code>  (317) 
T

>  <parent_uuid>  (317) 
38ce1dff-635b-49bf-aa41-0dda23e4ce8b

>  <o3da_score>  (317) 
74.66431684943187

>  <o3da_score_rel>  (317) 
0.29724949379511384

>  <o3da_align>  (317) 
0.52782786325526665

>  <RMSD>  (317) 
0.23781641051507948

>  <CONVERGED>  (317) 
0

>  <ENERGY>  (317) 
-15.940793299117182

$$$$
06cb7932-9c36-43b8-b595-6b854eb1da1a
     RDKit          3D

 16 17  0  0  0  0  0  0  0  0999 V2000
   -0.4077   33.1242    1.3835 C   0  0  0  0  0  0  0  0  0  0  0  0
   -0.1013   32.0817    0.6101 C   0  0  0  0  0  0  0  0  0  0  0  0
    0.8078   32.3097   -0.3988 O   0  0  0  0  0  0  0  0  0  0  0  0
   -0.5958   30.8095    0.6484 N   0  0  0  0  0  0  0  0  0  0  0  0
   -1.2947   30.0783    1.5663 C   0  0  0  0  0  0  0  0  0  0  0  0
   -1.9545   29.0091    1.2213 N   0  0  0  0  0  0  0  0  0  0  0  0
   -2.5365   28.3934    2.3116 C   0  0  0  0  0  0  0  0  0  0  0  0
   -2.8699   27.0991    2.2233 C   0  0  0  0  0  0  0  0  0  0  0  0
   -2.5433   29.2242    3.5153 C   0  0  0  0  0  0  0  0  0  0  0  0
   -3.3485   29.2141    4.6072 C   0  0  0  0  0  0  0  0  0  0  0  0
   -4.5133   28.3431    4.7324 C   0  0  0  0  0  0  0  0  0  0  0  0
   -5.2017   28.2092    5.8728 C   0  0  0  0  0  0  0  0  0  0  0  0
   -4.8222   28.9687    7.0911 C   0  0  0  0  0  0  0  0  0  0  0  0
   -3.7743   29.9977    6.7588 C   0  0  0  0  0  0  0  0  0  0  0  0
   -3.1223   30.1066    5.6432 N   0  0  0  0  0  0  0  0  0  0  0  0
   -1.3195   30.4585    3.2756 S   0  0  0  0  0  0  0  0  0  0  0  0
  1  2  2  3
  2  3  1  0
  2  4  1  0
  4  5  1  0
  5  6  2  0
  6  7  1  0
  7  8  2  3
  7  9  1  0
  9 10  2  3
 10 11  1  0
 11 12  2  0
 12 13  1  0
 13 14  1  0
 14 15  2  0
  9 16  1  0
 16  5  1  0
 15 10  1  0
M  END
>  <Energy>  (318) 
-15.940793298043385

>  <Energy_Delta>  (318) 
16.562477321053596

>  <std_smi>  (318) 
CC(=O)Nc1nc(C)c(-c2ccccn2)s1

>  <enum_smi>  (318) 
C=C(O)Nc1nc(=C)c(=C2C=CCC=N2)s1

>  <enum_code>  (318) 
T

>  <parent_uuid>  (318) 
38ce1dff-635b-49bf-aa41-0dda23e4ce8b

>  <o3da_score>  (318) 
79.66281827557593

>  <o3da_score_rel>  (318) 
0.31714925423425033

>  <o3da_align>  (318) 
0.38485537789765745

>  <RMSD>  (318) 
6.1919099761897204e-05

>  <CONVERGED>  (318) 
0

>  <ENERGY>  (318) 
-15.940793299118074

$$$$
cf865b5c-57bb-4bfe-a2c9-5e4dd9a2e5c7
     RDKit          3D

 16 17  0  0  0  0  0  0  0  0999 V2000
   -3.0171   22.4913    4.9717 C   0  0  0  0  0  0  0  0  0  0  0  0
   -3.5466   23.7163    4.9355 C   0  0  0  0  0  0  0  0  0  0  0  0
   -4.8948   23.8332    5.1856 O   0  0  0  0  0  0  0  0  0  0  0  0
   -2.8319   24.8554    4.6659 N   0  0  0  0  0  0  0  0  0  0  0  0
   -3.2720   26.1327    4.6037 C   0  0  0  0  0  0  0  0  0  0  0  0
   -4.5176   26.5024    4.8020 N   0  0  0  0  0  0  0  0  0  0  0  0
   -4.6457   27.8791    4.6603 C   0  0  0  0  0  0  0  0  0  0  0  0
   -6.0012   28.4673    4.8434 C   0  0  0  0  0  0  0  0  0  0  0  0
   -3.4676   28.5575    4.3688 C   0  0  0  0  0  0  0  0  0  0  0  0
   -3.2324   29.9890    4.1447 C   0  0  0  0  0  0  0  0  0  0  0  0
   -2.0244   30.6242    4.4260 C   0  0  0  0  0  0  0  0  0  0  0  0
   -1.9054   31.9905    4.1770 C   0  0  0  0  0  0  0  0  0  0  0  0
   -2.9893   32.6856    3.6578 C   0  0  0  0  0  0  0  0  0  0  0  0
   -4.1550   31.9829    3.4116 C   0  0  0  0  0  0  0  0  0  0  0  0
   -4.2994   30.6600    3.6458 N   0  0  0  0  0  0  0  0  0  0  0  0
   -2.1871   27.4122    4.2496 S   0  0  0  0  0  0  0  0  0  0  0  0
  1  2  2  3
  2  3  1  0
  2  4  1  0
  4  5  1  0
  5  6  2  0
  6  7  1  0
  7  8  1  0
  7  9  2  0
  9 10  1  0
 10 11  2  0
 11 12  1  0
 12 13  2  0
 13 14  1  0
 14 15  2  0
  9 16  1  0
 16  5  1  0
 15 10  1  0
M  END
>  <Energy>  (319) 
-41.755489840013205

>  <Energy_Delta>  (319) 
0

>  <std_smi>  (319) 
CC(=O)Nc1nc(C)c(-c2ccccn2)s1

>  <enum_smi>  (319) 
C=C(O)Nc1nc(C)c(-c2ccccn2)s1

>  <enum_code>  (319) 
T

>  <parent_uuid>  (319) 
38ce1dff-635b-49bf-aa41-0dda23e4ce8b

>  <o3da_score>  (319) 
64.183130679533889

>  <o3da_score_rel>  (319) 
0.25552236877959539

>  <o3da_align>  (319) 
0.51854485277644957

>  <RMSD>  (319) 
6.1489810936003915e-05

>  <CONVERGED>  (319) 
0

>  <ENERGY>  (319) 
-41.755489840127062

$$$$
cf865b5c-57bb-4bfe-a2c9-5e4dd9a2e5c7
     RDKit          3D

 16 17  0  0  0  0  0  0  0  0999 V2000
   -3.0859   22.4708    4.9842 C   0  0  0  0  0  0  0  0  0  0  0  0
   -3.5794   23.7093    4.9143 C   0  0  0  0  0  0  0  0  0  0  0  0
   -4.9425   23.8581    5.0312 O   0  0  0  0  0  0  0  0  0  0  0  0
   -2.8143   24.8329    4.7344 N   0  0  0  0  0  0  0  0  0  0  0  0
   -3.2124   26.1225    4.6466 C   0  0  0  0  0  0  0  0  0  0  0  0
   -4.4634   26.5248    4.7249 N   0  0  0  0  0  0  0  0  0  0  0  0
   -4.5395   27.9039    4.5855 C   0  0  0  0  0  0  0  0  0  0  0  0
   -5.8898   28.5279    4.6077 C   0  0  0  0  0  0  0  0  0  0  0  0
   -3.3192   28.5450    4.4300 C   0  0  0  0  0  0  0  0  0  0  0  0
   -2.9997   29.9628    4.2932 C   0  0  0  0  0  0  0  0  0  0  0  0
   -3.4986   30.9146    5.1774 C   0  0  0  0  0  0  0  0  0  0  0  0
   -3.1633   32.2516    4.9784 C   0  0  0  0  0  0  0  0  0  0  0  0
   -2.3459   32.5963    3.9086 C   0  0  0  0  0  0  0  0  0  0  0  0
   -1.8932   31.5847    3.0785 C   0  0  0  0  0  0  0  0  0  0  0  0
   -2.2015   30.2805    3.2463 N   0  0  0  0  0  0  0  0  0  0  0  0
   -2.0608   27.3751    4.4241 S   0  0  0  0  0  0  0  0  0  0  0  0
  1  2  2  3
  2  3  1  0
  2  4  1  0
  4  5  1  0
  5  6  2  0
  6  7  1  0
  7  8  1  0
  7  9  2  0
  9 10  1  0
 10 11  2  0
 11 12  1  0
 12 13  2  0
 13 14  1  0
 14 15  2  0
  9 16  1  0
 16  5  1  0
 15 10  1  0
M  END
>  <Energy>  (320) 
-39.971139727030966

>  <Energy_Delta>  (320) 
1.7843501129822386

>  <std_smi>  (320) 
CC(=O)Nc1nc(C)c(-c2ccccn2)s1

>  <enum_smi>  (320) 
C=C(O)Nc1nc(C)c(-c2ccccn2)s1

>  <enum_code>  (320) 
T

>  <parent_uuid>  (320) 
38ce1dff-635b-49bf-aa41-0dda23e4ce8b

>  <o3da_score>  (320) 
73.363824114203453

>  <o3da_score_rel>  (320) 
0.29207204325993474

>  <o3da_align>  (320) 
0.60239561509614414

>  <RMSD>  (320) 
6.4878772850932012e-05

>  <CONVERGED>  (320) 
0

>  <ENERGY>  (320) 
-39.971139727265324

$$$$
cf865b5c-57bb-4bfe-a2c9-5e4dd9a2e5c7
     RDKit          3D

 16 17  0  0  0  0  0  0  0  0999 V2000
   -0.4251   33.1764    1.5614 C   0  0  0  0  0  0  0  0  0  0  0  0
   -1.0698   32.4168    2.4500 C   0  0  0  0  0  0  0  0  0  0  0  0
   -1.3898   32.9874    3.6608 O   0  0  0  0  0  0  0  0  0  0  0  0
   -1.4291   31.1121    2.2293 N   0  0  0  0  0  0  0  0  0  0  0  0
   -2.0824   30.2631    3.0549 C   0  0  0  0  0  0  0  0  0  0  0  0
   -2.4981   30.5708    4.2655 N   0  0  0  0  0  0  0  0  0  0  0  0
   -3.1423   29.4874    4.8475 C   0  0  0  0  0  0  0  0  0  0  0  0
   -3.7153   29.6726    6.2078 C   0  0  0  0  0  0  0  0  0  0  0  0
   -3.1815   28.3412    4.0672 C   0  0  0  0  0  0  0  0  0  0  0  0
   -3.7299   27.0176    4.3474 C   0  0  0  0  0  0  0  0  0  0  0  0
   -3.4216   26.3297    5.5170 C   0  0  0  0  0  0  0  0  0  0  0  0
   -3.9920   25.0762    5.7247 C   0  0  0  0  0  0  0  0  0  0  0  0
   -4.8486   24.5508    4.7647 C   0  0  0  0  0  0  0  0  0  0  0  0
   -5.0995   25.3031    3.6297 C   0  0  0  0  0  0  0  0  0  0  0  0
   -4.5616   26.5207    3.4010 N   0  0  0  0  0  0  0  0  0  0  0  0
   -2.4213   28.6557    2.5587 S   0  0  0  0  0  0  0  0  0  0  0  0
  1  2  2  3
  2  3  1  0
  2  4  1  0
  4  5  1  0
  5  6  2  0
  6  7  1  0
  7  8  1  0
  7  9  2  0
  9 10  1  0
 10 11  2  0
 11 12  1  0
 12 13  2  0
 13 14  1  0
 14 15  2  0
  9 16  1  0
 16  5  1  0
 15 10  1  0
M  END
>  <Energy>  (321) 
-39.971139726448875

>  <Energy_Delta>  (321) 
1.7843501135643294

>  <std_smi>  (321) 
CC(=O)Nc1nc(C)c(-c2ccccn2)s1

>  <enum_smi>  (321) 
C=C(O)Nc1nc(C)c(-c2ccccn2)s1

>  <enum_code>  (321) 
T

>  <parent_uuid>  (321) 
38ce1dff-635b-49bf-aa41-0dda23e4ce8b

>  <o3da_score>  (321) 
73.357007064369213

>  <o3da_score_rel>  (321) 
0.29204490359405538

>  <o3da_align>  (321) 
0.54133165907311942

>  <RMSD>  (321) 
7.5629439899089205e-05

>  <CONVERGED>  (321) 
0

>  <ENERGY>  (321) 
-39.971139727265644

$$$$
cf865b5c-57bb-4bfe-a2c9-5e4dd9a2e5c7
     RDKit          3D

 16 17  0  0  0  0  0  0  0  0999 V2000
   -0.3908   30.1575   -0.9630 C   0  0  0  0  0  0  0  0  0  0  0  0
   -0.1372   31.0904   -0.0434 C   0  0  0  0  0  0  0  0  0  0  0  0
    0.7107   32.1109   -0.4099 O   0  0  0  0  0  0  0  0  0  0  0  0
   -0.6185   31.1807    1.2342 N   0  0  0  0  0  0  0  0  0  0  0  0
   -1.3698   30.3038    1.9459 C   0  0  0  0  0  0  0  0  0  0  0  0
   -1.6402   29.0587    1.6345 N   0  0  0  0  0  0  0  0  0  0  0  0
   -2.4403   28.4621    2.5994 C   0  0  0  0  0  0  0  0  0  0  0  0
   -2.8480   27.0482    2.3763 C   0  0  0  0  0  0  0  0  0  0  0  0
   -2.7606   29.2691    3.6836 C   0  0  0  0  0  0  0  0  0  0  0  0
   -3.5792   28.9809    4.8674 C   0  0  0  0  0  0  0  0  0  0  0  0
   -3.3819   29.5885    6.1059 C   0  0  0  0  0  0  0  0  0  0  0  0
   -4.2155   29.2434    7.1687 C   0  0  0  0  0  0  0  0  0  0  0  0
   -5.2188   28.3044    6.9707 C   0  0  0  0  0  0  0  0  0  0  0  0
   -5.3453   27.7434    5.7128 C   0  0  0  0  0  0  0  0  0  0  0  0
   -4.5504   28.0568    4.6661 N   0  0  0  0  0  0  0  0  0  0  0  0
   -2.0465   30.8163    3.4452 S   0  0  0  0  0  0  0  0  0  0  0  0
  1  2  2  3
  2  3  1  0
  2  4  1  0
  4  5  1  0
  5  6  2  0
  6  7  1  0
  7  8  1  0
  7  9  2  0
  9 10  1  0
 10 11  2  0
 11 12  1  0
 12 13  2  0
 13 14  1  0
 14 15  2  0
  9 16  1  0
 16  5  1  0
 15 10  1  0
M  END
>  <Energy>  (322) 
-35.362125472984154

>  <Energy_Delta>  (322) 
6.3933643670290508

>  <std_smi>  (322) 
CC(=O)Nc1nc(C)c(-c2ccccn2)s1

>  <enum_smi>  (322) 
C=C(O)Nc1nc(C)c(-c2ccccn2)s1

>  <enum_code>  (322) 
T

>  <parent_uuid>  (322) 
38ce1dff-635b-49bf-aa41-0dda23e4ce8b

>  <o3da_score>  (322) 
67.873896357578289

>  <o3da_score_rel>  (322) 
0.27021584319693248

>  <o3da_align>  (322) 
0.38424369810080045

>  <RMSD>  (322) 
0.12515986278825483

>  <CONVERGED>  (322) 
0

>  <ENERGY>  (322) 
-30.907492127484389

$$$$
cf865b5c-57bb-4bfe-a2c9-5e4dd9a2e5c7
     RDKit          3D

 16 17  0  0  0  0  0  0  0  0999 V2000
   -2.0992   23.8101    5.6581 C   0  0  0  0  0  0  0  0  0  0  0  0
   -1.9333   25.1050    5.3753 C   0  0  0  0  0  0  0  0  0  0  0  0
   -0.6418   25.5405    5.2059 O   0  0  0  0  0  0  0  0  0  0  0  0
   -2.9757   25.9895    5.2664 N   0  0  0  0  0  0  0  0  0  0  0  0
   -3.0885   27.2952    4.9254 C   0  0  0  0  0  0  0  0  0  0  0  0
   -4.2622   27.8832    4.9110 N   0  0  0  0  0  0  0  0  0  0  0  0
   -4.1540   29.2168    4.5388 C   0  0  0  0  0  0  0  0  0  0  0  0
   -5.4041   30.0231    4.4872 C   0  0  0  0  0  0  0  0  0  0  0  0
   -2.8663   29.6427    4.2426 C   0  0  0  0  0  0  0  0  0  0  0  0
   -2.3791   30.9635    3.8289 C   0  0  0  0  0  0  0  0  0  0  0  0
   -1.2608   31.1516    3.0190 C   0  0  0  0  0  0  0  0  0  0  0  0
   -0.8811   32.4499    2.6829 C   0  0  0  0  0  0  0  0  0  0  0  0
   -1.6236   33.5220    3.1593 C   0  0  0  0  0  0  0  0  0  0  0  0
   -2.7234   33.2502    3.9529 C   0  0  0  0  0  0  0  0  0  0  0  0
   -3.1162   32.0026    4.2923 N   0  0  0  0  0  0  0  0  0  0  0  0
   -1.7879   28.3246    4.4746 S   0  0  0  0  0  0  0  0  0  0  0  0
  1  2  2  3
  2  3  1  0
  2  4  1  0
  4  5  1  0
  5  6  2  0
  6  7  1  0
  7  8  1  0
  7  9  2  0
  9 10  1  0
 10 11  2  0
 11 12  1  0
 12 13  2  0
 13 14  1  0
 14 15  2  0
  9 16  1  0
 16  5  1  0
 15 10  1  0
M  END
>  <Energy>  (323) 
-34.574799467641881

>  <Energy_Delta>  (323) 
7.1806903723713233

>  <std_smi>  (323) 
CC(=O)Nc1nc(C)c(-c2ccccn2)s1

>  <enum_smi>  (323) 
C=C(O)Nc1nc(C)c(-c2ccccn2)s1

>  <enum_code>  (323) 
T

>  <parent_uuid>  (323) 
38ce1dff-635b-49bf-aa41-0dda23e4ce8b

>  <o3da_score>  (323) 
72.775764083293595

>  <o3da_score_rel>  (323) 
0.28973089083418369

>  <o3da_align>  (323) 
0.60649330560659931

>  <RMSD>  (323) 
6.9294956272790125e-05

>  <CONVERGED>  (323) 
0

>  <ENERGY>  (323) 
-34.574799468109688

$$$$
cf865b5c-57bb-4bfe-a2c9-5e4dd9a2e5c7
     RDKit          3D

 16 17  0  0  0  0  0  0  0  0999 V2000
    0.7002   32.7982   -0.4847 C   0  0  0  0  0  0  0  0  0  0  0  0
   -0.0092   32.1812    0.4642 C   0  0  0  0  0  0  0  0  0  0  0  0
   -0.3128   32.9149    1.5849 O   0  0  0  0  0  0  0  0  0  0  0  0
   -0.4437   30.8852    0.3539 N   0  0  0  0  0  0  0  0  0  0  0  0
   -1.0924   30.0226    1.1719 C   0  0  0  0  0  0  0  0  0  0  0  0
   -1.3769   28.8057    0.7696 N   0  0  0  0  0  0  0  0  0  0  0  0
   -2.0436   28.0910    1.7561 C   0  0  0  0  0  0  0  0  0  0  0  0
   -2.4452   26.6922    1.4437 C   0  0  0  0  0  0  0  0  0  0  0  0
   -2.2494   28.7789    2.9443 C   0  0  0  0  0  0  0  0  0  0  0  0
   -2.9138   28.3522    4.1810 C   0  0  0  0  0  0  0  0  0  0  0  0
   -2.5712   28.8329    5.4432 C   0  0  0  0  0  0  0  0  0  0  0  0
   -3.2653   28.3621    6.5565 C   0  0  0  0  0  0  0  0  0  0  0  0
   -4.2771   27.4272    6.3835 C   0  0  0  0  0  0  0  0  0  0  0  0
   -4.5518   26.9963    5.0981 C   0  0  0  0  0  0  0  0  0  0  0  0
   -3.8939   27.4330    4.0016 N   0  0  0  0  0  0  0  0  0  0  0  0
   -1.6063   30.3641    2.7762 S   0  0  0  0  0  0  0  0  0  0  0  0
  1  2  2  3
  2  3  1  0
  2  4  1  0
  4  5  1  0
  5  6  2  0
  6  7  1  0
  7  8  1  0
  7  9  2  0
  9 10  1  0
 10 11  2  0
 11 12  1  0
 12 13  2  0
 13 14  1  0
 14 15  2  0
  9 16  1  0
 16  5  1  0
 15 10  1  0
M  END
>  <Energy>  (324) 
-34.574799467024214

>  <Energy_Delta>  (324) 
7.180690372988991

>  <std_smi>  (324) 
CC(=O)Nc1nc(C)c(-c2ccccn2)s1

>  <enum_smi>  (324) 
C=C(O)Nc1nc(C)c(-c2ccccn2)s1

>  <enum_code>  (324) 
T

>  <parent_uuid>  (324) 
38ce1dff-635b-49bf-aa41-0dda23e4ce8b

>  <o3da_score>  (324) 
68.034582756253343

>  <o3da_score_rel>  (324) 
0.27085555909712938

>  <o3da_align>  (324) 
0.52845634259584073

>  <RMSD>  (324) 
5.9420300564034758e-05

>  <CONVERGED>  (324) 
0

>  <ENERGY>  (324) 
-34.574799468098163

$$$$
cf865b5c-57bb-4bfe-a2c9-5e4dd9a2e5c7
     RDKit          3D

 16 17  0  0  0  0  0  0  0  0999 V2000
   -4.9056   23.5630    5.4435 C   0  0  0  0  0  0  0  0  0  0  0  0
   -3.6689   23.6716    4.9545 C   0  0  0  0  0  0  0  0  0  0  0  0
   -2.9842   22.4988    4.7298 O   0  0  0  0  0  0  0  0  0  0  0  0
   -2.9717   24.8076    4.6479 N   0  0  0  0  0  0  0  0  0  0  0  0
   -3.3749   26.1023    4.6282 C   0  0  0  0  0  0  0  0  0  0  0  0
   -4.6062   26.5506    4.7205 N   0  0  0  0  0  0  0  0  0  0  0  0
   -4.6421   27.9342    4.6383 C   0  0  0  0  0  0  0  0  0  0  0  0
   -5.9743   28.5931    4.6894 C   0  0  0  0  0  0  0  0  0  0  0  0
   -3.4044   28.5439    4.5061 C   0  0  0  0  0  0  0  0  0  0  0  0
   -3.0416   29.9559    4.4282 C   0  0  0  0  0  0  0  0  0  0  0  0
   -3.5238   30.8872    5.3429 C   0  0  0  0  0  0  0  0  0  0  0  0
   -3.1466   32.2204    5.2013 C   0  0  0  0  0  0  0  0  0  0  0  0
   -2.3048   32.5822    4.1565 C   0  0  0  0  0  0  0  0  0  0  0  0
   -1.8707   31.5907    3.2930 C   0  0  0  0  0  0  0  0  0  0  0  0
   -2.2192   30.2906    3.4050 N   0  0  0  0  0  0  0  0  0  0  0  0
   -2.1849   27.3369    4.4463 S   0  0  0  0  0  0  0  0  0  0  0  0
  1  2  2  3
  2  3  1  0
  2  4  1  0
  4  5  1  0
  5  6  2  0
  6  7  1  0
  7  8  1  0
  7  9  2  0
  9 10  1  0
 10 11  2  0
 11 12  1  0
 12 13  2  0
 13 14  1  0
 14 15  2  0
  9 16  1  0
 16  5  1  0
 15 10  1  0
M  END
>  <Energy>  (325) 
-33.448497095286967

>  <Energy_Delta>  (325) 
8.3069927447262373

>  <std_smi>  (325) 
CC(=O)Nc1nc(C)c(-c2ccccn2)s1

>  <enum_smi>  (325) 
C=C(O)Nc1nc(C)c(-c2ccccn2)s1

>  <enum_code>  (325) 
T

>  <parent_uuid>  (325) 
38ce1dff-635b-49bf-aa41-0dda23e4ce8b

>  <o3da_score>  (325) 
68.941290830221206

>  <o3da_score_rel>  (325) 
0.27446529568054179

>  <o3da_align>  (325) 
0.57976115007245865

>  <RMSD>  (325) 
0.12611743222371391

>  <CONVERGED>  (325) 
0

>  <ENERGY>  (325) 
-29.485277386034895

$$$$
cf865b5c-57bb-4bfe-a2c9-5e4dd9a2e5c7
     RDKit          3D

 16 17  0  0  0  0  0  0  0  0999 V2000
   -0.7143   33.3534    3.7183 C   0  0  0  0  0  0  0  0  0  0  0  0
   -0.9881   32.5835    2.6634 C   0  0  0  0  0  0  0  0  0  0  0  0
   -0.4564   32.9730    1.4550 O   0  0  0  0  0  0  0  0  0  0  0  0
   -1.7305   31.4357    2.6174 N   0  0  0  0  0  0  0  0  0  0  0  0
   -2.4868   30.8447    3.5754 C   0  0  0  0  0  0  0  0  0  0  0  0
   -2.8358   31.3527    4.7354 N   0  0  0  0  0  0  0  0  0  0  0  0
   -3.6338   30.4706    5.4479 C   0  0  0  0  0  0  0  0  0  0  0  0
   -4.1432   30.9177    6.7716 C   0  0  0  0  0  0  0  0  0  0  0  0
   -3.8704   29.2584    4.8189 C   0  0  0  0  0  0  0  0  0  0  0  0
   -4.6175   28.0851    5.2623 C   0  0  0  0  0  0  0  0  0  0  0  0
   -4.4131   27.5180    6.5167 C   0  0  0  0  0  0  0  0  0  0  0  0
   -5.1701   26.4066    6.8792 C   0  0  0  0  0  0  0  0  0  0  0  0
   -6.1036   25.8978    5.9844 C   0  0  0  0  0  0  0  0  0  0  0  0
   -6.2412   26.5229    4.7566 C   0  0  0  0  0  0  0  0  0  0  0  0
   -5.5218   27.6013    4.3772 N   0  0  0  0  0  0  0  0  0  0  0  0
   -3.0993   29.2591    3.2850 S   0  0  0  0  0  0  0  0  0  0  0  0
  1  2  2  3
  2  3  1  0
  2  4  1  0
  4  5  1  0
  5  6  2  0
  6  7  1  0
  7  8  1  0
  7  9  2  0
  9 10  1  0
 10 11  2  0
 11 12  1  0
 12 13  2  0
 13 14  1  0
 14 15  2  0
  9 16  1  0
 16  5  1  0
 15 10  1  0
M  END
>  <Energy>  (326) 
-33.448497095153705

>  <Energy_Delta>  (326) 
8.3069927448594996

>  <std_smi>  (326) 
CC(=O)Nc1nc(C)c(-c2ccccn2)s1

>  <enum_smi>  (326) 
C=C(O)Nc1nc(C)c(-c2ccccn2)s1

>  <enum_code>  (326) 
T

>  <parent_uuid>  (326) 
38ce1dff-635b-49bf-aa41-0dda23e4ce8b

>  <o3da_score>  (326) 
66.252162127436961

>  <o3da_score_rel>  (326) 
0.26375948359543983

>  <o3da_align>  (326) 
0.4142343484097748

>  <RMSD>  (326) 
0.12612164279641927

>  <CONVERGED>  (326) 
0

>  <ENERGY>  (326) 
-29.485277386038479

$$$$
cf865b5c-57bb-4bfe-a2c9-5e4dd9a2e5c7
     RDKit          3D

 16 17  0  0  0  0  0  0  0  0999 V2000
   -0.6276   31.2948    0.7399 C   0  0  0  0  0  0  0  0  0  0  0  0
   -1.2737   30.2985    1.3518 C   0  0  0  0  0  0  0  0  0  0  0  0
   -1.1532   29.0494    0.7932 O   0  0  0  0  0  0  0  0  0  0  0  0
   -2.0377   30.4787    2.4766 N   0  0  0  0  0  0  0  0  0  0  0  0
   -2.7318   29.6566    3.2991 C   0  0  0  0  0  0  0  0  0  0  0  0
   -3.3900   30.1404    4.3296 N   0  0  0  0  0  0  0  0  0  0  0  0
   -4.0389   29.1339    5.0299 C   0  0  0  0  0  0  0  0  0  0  0  0
   -4.8651   29.5285    6.2019 C   0  0  0  0  0  0  0  0  0  0  0  0
   -3.8386   27.8567    4.5319 C   0  0  0  0  0  0  0  0  0  0  0  0
   -4.3166   26.5617    5.0069 C   0  0  0  0  0  0  0  0  0  0  0  0
   -4.1903   26.1767    6.3381 C   0  0  0  0  0  0  0  0  0  0  0  0
   -4.6795   24.9306    6.7224 C   0  0  0  0  0  0  0  0  0  0  0  0
   -5.2772   24.1114    5.7721 C   0  0  0  0  0  0  0  0  0  0  0  0
   -5.3599   24.5731    4.4694 C   0  0  0  0  0  0  0  0  0  0  0  0
   -4.8951   25.7759    4.0675 N   0  0  0  0  0  0  0  0  0  0  0  0
   -2.8432   27.9478    3.1379 S   0  0  0  0  0  0  0  0  0  0  0  0
  1  2  2  3
  2  3  1  0
  2  4  1  0
  4  5  1  0
  5  6  2  0
  6  7  1  0
  7  8  1  0
  7  9  2  0
  9 10  1  0
 10 11  2  0
 11 12  1  0
 12 13  2  0
 13 14  1  0
 14 15  2  0
  9 16  1  0
 16  5  1  0
 15 10  1  0
M  END
>  <Energy>  (327) 
-32.903411384212227

>  <Energy_Delta>  (327) 
8.852078455800978

>  <std_smi>  (327) 
CC(=O)Nc1nc(C)c(-c2ccccn2)s1

>  <enum_smi>  (327) 
C=C(O)Nc1nc(C)c(-c2ccccn2)s1

>  <enum_code>  (327) 
T

>  <parent_uuid>  (327) 
38ce1dff-635b-49bf-aa41-0dda23e4ce8b

>  <o3da_score>  (327) 
69.345936646148559

>  <o3da_score_rel>  (327) 
0.27607624946711795

>  <o3da_align>  (327) 
0.63335132956332318

>  <RMSD>  (327) 
6.453176633056618e-05

>  <CONVERGED>  (327) 
0

>  <ENERGY>  (327) 
-32.903411384590541

$$$$
cf865b5c-57bb-4bfe-a2c9-5e4dd9a2e5c7
     RDKit          3D

 16 17  0  0  0  0  0  0  0  0999 V2000
    0.2740   35.3907    2.1169 C   0  0  0  0  0  0  0  0  0  0  0  0
   -0.3455   34.2573    2.4578 C   0  0  0  0  0  0  0  0  0  0  0  0
   -1.0054   34.2526    3.6624 O   0  0  0  0  0  0  0  0  0  0  0  0
   -0.3529   33.1385    1.6645 N   0  0  0  0  0  0  0  0  0  0  0  0
   -0.8429   31.8825    1.7926 C   0  0  0  0  0  0  0  0  0  0  0  0
   -0.6906   31.0026    0.8273 N   0  0  0  0  0  0  0  0  0  0  0  0
   -1.2751   29.7883    1.1564 C   0  0  0  0  0  0  0  0  0  0  0  0
   -1.2248   28.6996    0.1444 C   0  0  0  0  0  0  0  0  0  0  0  0
   -1.8548   29.7436    2.4138 C   0  0  0  0  0  0  0  0  0  0  0  0
   -2.5234   28.6535    3.1179 C   0  0  0  0  0  0  0  0  0  0  0  0
   -1.9542   27.3878    3.2194 C   0  0  0  0  0  0  0  0  0  0  0  0
   -2.6548   26.3926    3.8966 C   0  0  0  0  0  0  0  0  0  0  0  0
   -3.8954   26.6888    4.4484 C   0  0  0  0  0  0  0  0  0  0  0  0
   -4.3865   27.9750    4.3014 C   0  0  0  0  0  0  0  0  0  0  0  0
   -3.7306   28.9600    3.6503 N   0  0  0  0  0  0  0  0  0  0  0  0
   -1.6827   31.2757    3.1657 S   0  0  0  0  0  0  0  0  0  0  0  0
  1  2  2  3
  2  3  1  0
  2  4  1  0
  4  5  1  0
  5  6  2  0
  6  7  1  0
  7  8  1  0
  7  9  2  0
  9 10  1  0
 10 11  2  0
 11 12  1  0
 12 13  2  0
 13 14  1  0
 14 15  2  0
  9 16  1  0
 16  5  1  0
 15 10  1  0
M  END
>  <Energy>  (328) 
-32.903411383810692

>  <Energy_Delta>  (328) 
8.8520784562025128

>  <std_smi>  (328) 
CC(=O)Nc1nc(C)c(-c2ccccn2)s1

>  <enum_smi>  (328) 
C=C(O)Nc1nc(C)c(-c2ccccn2)s1

>  <enum_code>  (328) 
T

>  <parent_uuid>  (328) 
38ce1dff-635b-49bf-aa41-0dda23e4ce8b

>  <o3da_score>  (328) 
69.381022848919528

>  <o3da_score_rel>  (328) 
0.27621593273822986

>  <o3da_align>  (328) 
0.66662211381242842

>  <RMSD>  (328) 
5.3882598876953125e-05

>  <CONVERGED>  (328) 
0

>  <ENERGY>  (328) 
-32.903411384589376

$$$$
cf865b5c-57bb-4bfe-a2c9-5e4dd9a2e5c7
     RDKit          3D

 16 17  0  0  0  0  0  0  0  0999 V2000
   -2.2230   25.6976    5.3635 C   0  0  0  0  0  0  0  0  0  0  0  0
   -2.9873   25.2850    4.3508 C   0  0  0  0  0  0  0  0  0  0  0  0
   -3.8699   24.2642    4.6212 O   0  0  0  0  0  0  0  0  0  0  0  0
   -3.0000   25.7085    3.0513 N   0  0  0  0  0  0  0  0  0  0  0  0
   -2.5256   26.8207    2.4382 C   0  0  0  0  0  0  0  0  0  0  0  0
   -2.3244   26.8294    1.1403 N   0  0  0  0  0  0  0  0  0  0  0  0
   -1.8636   28.0676    0.7113 C   0  0  0  0  0  0  0  0  0  0  0  0
   -1.5574   28.2242   -0.7369 C   0  0  0  0  0  0  0  0  0  0  0  0
   -1.7561   29.0337    1.7035 C   0  0  0  0  0  0  0  0  0  0  0  0
   -1.3059   30.4291    1.6221 C   0  0  0  0  0  0  0  0  0  0  0  0
   -1.7216   31.4264    2.5025 C   0  0  0  0  0  0  0  0  0  0  0  0
   -1.2333   32.7216    2.3375 C   0  0  0  0  0  0  0  0  0  0  0  0
   -0.3478   32.9894    1.3026 C   0  0  0  0  0  0  0  0  0  0  0  0
    0.0117   31.9463    0.4686 C   0  0  0  0  0  0  0  0  0  0  0  0
   -0.4478   30.6827    0.6032 N   0  0  0  0  0  0  0  0  0  0  0  0
   -2.2340   28.3334    3.1993 S   0  0  0  0  0  0  0  0  0  0  0  0
  1  2  2  3
  2  3  1  0
  2  4  1  0
  4  5  1  0
  5  6  2  0
  6  7  1  0
  7  8  1  0
  7  9  2  0
  9 10  1  0
 10 11  2  0
 11 12  1  0
 12 13  2  0
 13 14  1  0
 14 15  2  0
  9 16  1  0
 16  5  1  0
 15 10  1  0
M  END
>  <Energy>  (329) 
-31.991220115521763

>  <Energy_Delta>  (329) 
9.7642697244914416

>  <std_smi>  (329) 
CC(=O)Nc1nc(C)c(-c2ccccn2)s1

>  <enum_smi>  (329) 
C=C(O)Nc1nc(C)c(-c2ccccn2)s1

>  <enum_code>  (329) 
T

>  <parent_uuid>  (329) 
38ce1dff-635b-49bf-aa41-0dda23e4ce8b

>  <o3da_score>  (329) 
79.354067076455081

>  <o3da_score_rel>  (329) 
0.31592007085027346

>  <o3da_align>  (329) 
0.43098855765350857

>  <RMSD>  (329) 
0.22447625494194537

>  <CONVERGED>  (329) 
0

>  <ENERGY>  (329) 
-30.171974882395219

$$$$
cf865b5c-57bb-4bfe-a2c9-5e4dd9a2e5c7
     RDKit          3D

 16 17  0  0  0  0  0  0  0  0999 V2000
   -1.4866   22.5521    3.6180 C   0  0  0  0  0  0  0  0  0  0  0  0
   -2.8183   22.5011    3.6820 C   0  0  0  0  0  0  0  0  0  0  0  0
   -3.3960   21.2630    3.5157 O   0  0  0  0  0  0  0  0  0  0  0  0
   -3.7095   23.5078    3.9280 N   0  0  0  0  0  0  0  0  0  0  0  0
   -3.6132   24.8590    3.8757 C   0  0  0  0  0  0  0  0  0  0  0  0
   -4.4804   25.6122    4.5128 N   0  0  0  0  0  0  0  0  0  0  0  0
   -4.2201   26.9612    4.3086 C   0  0  0  0  0  0  0  0  0  0  0  0
   -5.1019   27.9442    4.9956 C   0  0  0  0  0  0  0  0  0  0  0  0
   -3.1559   27.2353    3.4592 C   0  0  0  0  0  0  0  0  0  0  0  0
   -2.5973   28.5222    3.0252 C   0  0  0  0  0  0  0  0  0  0  0  0
   -1.9223   28.7028    1.8193 C   0  0  0  0  0  0  0  0  0  0  0  0
   -1.4299   29.9679    1.5020 C   0  0  0  0  0  0  0  0  0  0  0  0
   -1.6233   31.0169    2.3903 C   0  0  0  0  0  0  0  0  0  0  0  0
   -2.3081   30.7572    3.5635 C   0  0  0  0  0  0  0  0  0  0  0  0
   -2.7985   29.5425    3.8954 N   0  0  0  0  0  0  0  0  0  0  0  0
   -2.4774   25.7439    2.9379 S   0  0  0  0  0  0  0  0  0  0  0  0
  1  2  2  3
  2  3  1  0
  2  4  1  0
  4  5  1  0
  5  6  2  0
  6  7  1  0
  7  8  1  0
  7  9  2  0
  9 10  1  0
 10 11  2  0
 11 12  1  0
 12 13  2  0
 13 14  1  0
 14 15  2  0
  9 16  1  0
 16  5  1  0
 15 10  1  0
M  END
>  <Energy>  (330) 
-31.991220115468362

>  <Energy_Delta>  (330) 
9.7642697245448424

>  <std_smi>  (330) 
CC(=O)Nc1nc(C)c(-c2ccccn2)s1

>  <enum_smi>  (330) 
C=C(O)Nc1nc(C)c(-c2ccccn2)s1

>  <enum_code>  (330) 
T

>  <parent_uuid>  (330) 
38ce1dff-635b-49bf-aa41-0dda23e4ce8b

>  <o3da_score>  (330) 
68.124676712897354

>  <o3da_score_rel>  (330) 
0.2712142362288098

>  <o3da_align>  (330) 
0.53236915383757311

>  <RMSD>  (330) 
0.22448421899582979

>  <CONVERGED>  (330) 
0

>  <ENERGY>  (330) 
-30.171974882380368

$$$$
cf865b5c-57bb-4bfe-a2c9-5e4dd9a2e5c7
     RDKit          3D

 16 17  0  0  0  0  0  0  0  0999 V2000
   -5.0278   23.5182    4.6640 C   0  0  0  0  0  0  0  0  0  0  0  0
   -3.7038   23.6534    4.7591 C   0  0  0  0  0  0  0  0  0  0  0  0
   -2.9749   22.5061    4.9754 O   0  0  0  0  0  0  0  0  0  0  0  0
   -2.9547   24.7937    4.6604 N   0  0  0  0  0  0  0  0  0  0  0  0
   -3.3462   26.0892    4.5738 C   0  0  0  0  0  0  0  0  0  0  0  0
   -4.5521   26.5661    4.7709 N   0  0  0  0  0  0  0  0  0  0  0  0
   -4.5784   27.9452    4.6142 C   0  0  0  0  0  0  0  0  0  0  0  0
   -5.8816   28.6359    4.8128 C   0  0  0  0  0  0  0  0  0  0  0  0
   -3.3629   28.5246    4.2746 C   0  0  0  0  0  0  0  0  0  0  0  0
   -3.0194   29.9318    4.0411 C   0  0  0  0  0  0  0  0  0  0  0  0
   -2.0140   30.3426    3.1680 C   0  0  0  0  0  0  0  0  0  0  0  0
   -1.7671   31.7060    3.0156 C   0  0  0  0  0  0  0  0  0  0  0  0
   -2.5266   32.6204    3.7330 C   0  0  0  0  0  0  0  0  0  0  0  0
   -3.5095   32.1315    4.5745 C   0  0  0  0  0  0  0  0  0  0  0  0
   -3.7723   30.8165    4.7399 N   0  0  0  0  0  0  0  0  0  0  0  0
   -2.1702   27.2878    4.1870 S   0  0  0  0  0  0  0  0  0  0  0  0
  1  2  2  3
  2  3  1  0
  2  4  1  0
  4  5  1  0
  5  6  2  0
  6  7  1  0
  7  8  1  0
  7  9  2  0
  9 10  1  0
 10 11  2  0
 11 12  1  0
 12 13  2  0
 13 14  1  0
 14 15  2  0
  9 16  1  0
 16  5  1  0
 15 10  1  0
M  END
>  <Energy>  (331) 
-30.978784790513146

>  <Energy_Delta>  (331) 
10.776705049500059

>  <std_smi>  (331) 
CC(=O)Nc1nc(C)c(-c2ccccn2)s1

>  <enum_smi>  (331) 
C=C(O)Nc1nc(C)c(-c2ccccn2)s1

>  <enum_code>  (331) 
T

>  <parent_uuid>  (331) 
38ce1dff-635b-49bf-aa41-0dda23e4ce8b

>  <o3da_score>  (331) 
73.56073560358081

>  <o3da_score_rel>  (331) 
0.2928559765095739

>  <o3da_align>  (331) 
0.61442244277794378

>  <RMSD>  (331) 
6.1456522215201274e-05

>  <CONVERGED>  (331) 
0

>  <ENERGY>  (331) 
-30.978784790593178

$$$$
cf865b5c-57bb-4bfe-a2c9-5e4dd9a2e5c7
     RDKit          3D

 16 17  0  0  0  0  0  0  0  0999 V2000
   -3.3991   26.1815    5.3194 C   0  0  0  0  0  0  0  0  0  0  0  0
   -3.3140   25.4258    4.2233 C   0  0  0  0  0  0  0  0  0  0  0  0
   -3.3667   24.0629    4.4084 O   0  0  0  0  0  0  0  0  0  0  0  0
   -3.2155   25.8097    2.9149 N   0  0  0  0  0  0  0  0  0  0  0  0
   -2.8792   26.9818    2.3217 C   0  0  0  0  0  0  0  0  0  0  0  0
   -3.2278   27.2206    1.0754 N   0  0  0  0  0  0  0  0  0  0  0  0
   -2.7732   28.4628    0.6577 C   0  0  0  0  0  0  0  0  0  0  0  0
   -3.1406   28.9121   -0.7114 C   0  0  0  0  0  0  0  0  0  0  0  0
   -2.0174   29.1502    1.5929 C   0  0  0  0  0  0  0  0  0  0  0  0
   -1.3480   30.4437    1.5088 C   0  0  0  0  0  0  0  0  0  0  0  0
   -0.4783   30.7503    0.4667 C   0  0  0  0  0  0  0  0  0  0  0  0
    0.1154   32.0098    0.4415 C   0  0  0  0  0  0  0  0  0  0  0  0
   -0.1764   32.9198    1.4506 C   0  0  0  0  0  0  0  0  0  0  0  0
   -1.0535   32.5310    2.4491 C   0  0  0  0  0  0  0  0  0  0  0  0
   -1.6451   31.3180    2.4993 N   0  0  0  0  0  0  0  0  0  0  0  0
   -1.9081   28.2158    3.0262 S   0  0  0  0  0  0  0  0  0  0  0  0
  1  2  2  3
  2  3  1  0
  2  4  1  0
  4  5  1  0
  5  6  2  0
  6  7  1  0
  7  8  1  0
  7  9  2  0
  9 10  1  0
 10 11  2  0
 11 12  1  0
 12 13  2  0
 13 14  1  0
 14 15  2  0
  9 16  1  0
 16  5  1  0
 15 10  1  0
M  END
>  <Energy>  (332) 
-29.989745162682844

>  <Energy_Delta>  (332) 
11.76574467733036

>  <std_smi>  (332) 
CC(=O)Nc1nc(C)c(-c2ccccn2)s1

>  <enum_smi>  (332) 
C=C(O)Nc1nc(C)c(-c2ccccn2)s1

>  <enum_code>  (332) 
T

>  <parent_uuid>  (332) 
38ce1dff-635b-49bf-aa41-0dda23e4ce8b

>  <o3da_score>  (332) 
72.730077297411555

>  <o3da_score_rel>  (332) 
0.28954900510148557

>  <o3da_align>  (332) 
0.29525718833273101

>  <RMSD>  (332) 
0.21758713142925309

>  <CONVERGED>  (332) 
0

>  <ENERGY>  (332) 
-27.869198961089928

$$$$
cf865b5c-57bb-4bfe-a2c9-5e4dd9a2e5c7
     RDKit          3D

 16 17  0  0  0  0  0  0  0  0999 V2000
   -0.2632   32.9693    1.5372 C   0  0  0  0  0  0  0  0  0  0  0  0
   -0.0043   32.0891    0.5687 C   0  0  0  0  0  0  0  0  0  0  0  0
    0.9168   32.4699   -0.3805 O   0  0  0  0  0  0  0  0  0  0  0  0
   -0.5530   30.8556    0.3533 N   0  0  0  0  0  0  0  0  0  0  0  0
   -1.2632   30.0127    1.1431 C   0  0  0  0  0  0  0  0  0  0  0  0
   -2.0083   29.0691    0.6080 N   0  0  0  0  0  0  0  0  0  0  0  0
   -2.6347   28.3108    1.5862 C   0  0  0  0  0  0  0  0  0  0  0  0
   -3.5667   27.2400    1.1437 C   0  0  0  0  0  0  0  0  0  0  0  0
   -2.3093   28.6565    2.8874 C   0  0  0  0  0  0  0  0  0  0  0  0
   -2.7286   28.0758    4.1582 C   0  0  0  0  0  0  0  0  0  0  0  0
   -2.6173   26.7119    4.4109 C   0  0  0  0  0  0  0  0  0  0  0  0
   -3.0502   26.2235    5.6412 C   0  0  0  0  0  0  0  0  0  0  0  0
   -3.5791   27.1060    6.5756 C   0  0  0  0  0  0  0  0  0  0  0  0
   -3.6530   28.4475    6.2404 C   0  0  0  0  0  0  0  0  0  0  0  0
   -3.2426   28.9499    5.0559 N   0  0  0  0  0  0  0  0  0  0  0  0
   -1.2158   29.9768    2.8631 S   0  0  0  0  0  0  0  0  0  0  0  0
  1  2  2  3
  2  3  1  0
  2  4  1  0
  4  5  1  0
  5  6  2  0
  6  7  1  0
  7  8  1  0
  7  9  2  0
  9 10  1  0
 10 11  2  0
 11 12  1  0
 12 13  2  0
 13 14  1  0
 14 15  2  0
  9 16  1  0
 16  5  1  0
 15 10  1  0
M  END
>  <Energy>  (333) 
-27.869198960583645

>  <Energy_Delta>  (333) 
13.886290879429559

>  <std_smi>  (333) 
CC(=O)Nc1nc(C)c(-c2ccccn2)s1

>  <enum_smi>  (333) 
C=C(O)Nc1nc(C)c(-c2ccccn2)s1

>  <enum_code>  (333) 
T

>  <parent_uuid>  (333) 
38ce1dff-635b-49bf-aa41-0dda23e4ce8b

>  <o3da_score>  (333) 
70.797172122846973

>  <o3da_score_rel>  (333) 
0.28185382875838816

>  <o3da_align>  (333) 
0.38347371939794078

>  <RMSD>  (333) 
4.3434080917552482e-05

>  <CONVERGED>  (333) 
0

>  <ENERGY>  (333) 
-27.86919896109152

$$$$
d38d285b-6b1c-4058-a472-10958f2a6204
     RDKit          3D

 16 17  0  0  0  0  0  0  0  0999 V2000
   -2.4854   31.3978    4.8630 C   0  0  0  0  0  0  0  0  0  0  0  0
   -2.2930   30.7885    3.6847 C   0  0  0  0  0  0  0  0  0  0  0  0
   -1.2638   31.1822    2.8602 N   0  0  0  0  0  0  0  0  0  0  0  0
   -1.3355   30.5946    1.7093 C   0  0  0  0  0  0  0  0  0  0  0  0
   -0.4112   30.8018    0.7376 N   0  0  0  0  0  0  0  0  0  0  0  0
   -0.2107   32.0060    0.3284 C   0  0  0  0  0  0  0  0  0  0  0  0
   -0.9031   33.2654    0.7639 C   0  0  0  0  0  0  0  0  0  0  0  0
    0.7486   32.1983   -0.5993 O   0  0  0  0  0  0  0  0  0  0  0  0
   -2.6352   29.4678    1.4297 S   0  0  0  0  0  0  0  0  0  0  0  0
   -3.1827   29.6758    3.1571 C   0  0  1  0  0  0  0  0  0  0  0  0
   -3.1133   28.3838    3.9510 C   0  0  0  0  0  0  0  0  0  0  0  0
   -1.8999   27.7390    4.2073 C   0  0  0  0  0  0  0  0  0  0  0  0
   -1.9004   26.5567    4.9431 C   0  0  0  0  0  0  0  0  0  0  0  0
   -3.1038   26.0433    5.4072 C   0  0  0  0  0  0  0  0  0  0  0  0
   -4.2641   26.7382    5.1170 C   0  0  0  0  0  0  0  0  0  0  0  0
   -4.2958   27.8889    4.4087 N   0  0  0  0  0  0  0  0  0  0  0  0
  1  2  2  3
  2  3  1  0
  3  4  2  0
  4  5  1  0
  5  6  2  3
  6  7  1  0
  6  8  1  0
  4  9  1  0
  9 10  1  0
 10 11  1  1
 11 12  2  0
 12 13  1  0
 13 14  2  0
 14 15  1  0
 15 16  2  0
 10  2  1  0
 16 11  1  0
M  END
>  <Energy>  (334) 
-12.361236227105891

>  <Energy_Delta>  (334) 
0

>  <std_smi>  (334) 
CC(=O)Nc1nc(C)c(-c2ccccn2)s1

>  <enum_smi>  (334) 
C=C1N=C(N=C(C)O)SC1c1ccccn1

>  <enum_code>  (334) 
T

>  <parent_uuid>  (334) 
38ce1dff-635b-49bf-aa41-0dda23e4ce8b

>  <o3da_score>  (334) 
90.485907505475751

>  <o3da_score_rel>  (334) 
0.36023754500874161

>  <o3da_align>  (334) 
0.44177859127267011

>  <RMSD>  (334) 
0.049417714645121034

>  <CONVERGED>  (334) 
0

>  <ENERGY>  (334) 
-4.6310521952883414

$$$$
d38d285b-6b1c-4058-a472-10958f2a6204
     RDKit          3D

 16 17  0  0  0  0  0  0  0  0999 V2000
   -1.2099   33.2648    3.5574 C   0  0  0  0  0  0  0  0  0  0  0  0
   -0.9368   32.5057    2.4870 C   0  0  0  0  0  0  0  0  0  0  0  0
   -0.2553   33.0368    1.4157 N   0  0  0  0  0  0  0  0  0  0  0  0
    0.0537   32.1195    0.5566 C   0  0  0  0  0  0  0  0  0  0  0  0
    0.7045   32.4069   -0.5990 N   0  0  0  0  0  0  0  0  0  0  0  0
    1.8454   32.9997   -0.5294 C   0  0  0  0  0  0  0  0  0  0  0  0
    2.6100   33.4077    0.6969 C   0  0  0  0  0  0  0  0  0  0  0  0
    2.4517   33.3242   -1.6890 O   0  0  0  0  0  0  0  0  0  0  0  0
   -0.4304   30.4773    0.8821 S   0  0  0  0  0  0  0  0  0  0  0  0
   -1.3085   31.0365    2.3798 C   0  0  2  0  0  0  0  0  0  0  0  0
   -2.8011   30.7674    2.3159 C   0  0  0  0  0  0  0  0  0  0  0  0
   -3.6224   31.3829    1.3669 C   0  0  0  0  0  0  0  0  0  0  0  0
   -4.9852   31.0968    1.3594 C   0  0  0  0  0  0  0  0  0  0  0  0
   -5.5002   30.2080    2.2932 C   0  0  0  0  0  0  0  0  0  0  0  0
   -4.6270   29.6401    3.2032 C   0  0  0  0  0  0  0  0  0  0  0  0
   -3.3011   29.9001    3.2381 N   0  0  0  0  0  0  0  0  0  0  0  0
  1  2  2  3
  2  3  1  0
  3  4  2  0
  4  5  1  0
  5  6  2  3
  6  7  1  0
  6  8  1  0
  4  9  1  0
  9 10  1  0
 10 11  1  6
 11 12  2  0
 12 13  1  0
 13 14  2  0
 14 15  1  0
 15 16  2  0
 10  2  1  0
 16 11  1  0
M  END
>  <Energy>  (335) 
-12.361236227026609

>  <Energy_Delta>  (335) 
7.9282358456111979e-11

>  <std_smi>  (335) 
CC(=O)Nc1nc(C)c(-c2ccccn2)s1

>  <enum_smi>  (335) 
C=C1N=C(N=C(C)O)SC1c1ccccn1

>  <enum_code>  (335) 
T

>  <parent_uuid>  (335) 
38ce1dff-635b-49bf-aa41-0dda23e4ce8b

>  <o3da_score>  (335) 
74.710381972359869

>  <o3da_score_rel>  (335) 
0.29743288574256271

>  <o3da_align>  (335) 
0.31541886630061589

>  <RMSD>  (335) 
0.049415195246197648

>  <CONVERGED>  (335) 
0

>  <ENERGY>  (335) 
-4.631052195284477

$$$$
d38d285b-6b1c-4058-a472-10958f2a6204
     RDKit          3D

 16 17  0  0  0  0  0  0  0  0999 V2000
   -2.5393   31.5673    5.0095 C   0  0  0  0  0  0  0  0  0  0  0  0
   -2.3718   31.0173    3.7984 C   0  0  0  0  0  0  0  0  0  0  0  0
   -1.8782   31.7708    2.7581 N   0  0  0  0  0  0  0  0  0  0  0  0
   -1.6489   31.0358    1.7181 C   0  0  0  0  0  0  0  0  0  0  0  0
   -1.1835   31.5852    0.5660 N   0  0  0  0  0  0  0  0  0  0  0  0
    0.0947   31.6964    0.4666 C   0  0  0  0  0  0  0  0  0  0  0  0
    0.7474   32.3075   -0.7312 C   0  0  0  0  0  0  0  0  0  0  0  0
    0.9535   31.2660    1.4100 O   0  0  0  0  0  0  0  0  0  0  0  0
   -2.0323   29.3355    1.7906 S   0  0  0  0  0  0  0  0  0  0  0  0
   -2.6674   29.5602    3.4865 C   0  0  2  0  0  0  0  0  0  0  0  0
   -4.1301   29.1711    3.6106 C   0  0  0  0  0  0  0  0  0  0  0  0
   -5.1389   29.8797    2.9515 C   0  0  0  0  0  0  0  0  0  0  0  0
   -6.4632   29.4766    3.1025 C   0  0  0  0  0  0  0  0  0  0  0  0
   -6.7546   28.3805    3.9030 C   0  0  0  0  0  0  0  0  0  0  0  0
   -5.7043   27.7298    4.5250 C   0  0  0  0  0  0  0  0  0  0  0  0
   -4.4101   28.0984    4.4005 N   0  0  0  0  0  0  0  0  0  0  0  0
  1  2  2  3
  2  3  1  0
  3  4  2  0
  4  5  1  0
  5  6  2  3
  6  7  1  0
  6  8  1  0
  4  9  1  0
  9 10  1  0
 10 11  1  6
 11 12  2  0
 12 13  1  0
 13 14  2  0
 14 15  1  0
 15 16  2  0
 10  2  1  0
 16 11  1  0
M  END
>  <Energy>  (336) 
-12.337850718558167

>  <Energy_Delta>  (336) 
0.023385508547724143

>  <std_smi>  (336) 
CC(=O)Nc1nc(C)c(-c2ccccn2)s1

>  <enum_smi>  (336) 
C=C1N=C(N=C(C)O)SC1c1ccccn1

>  <enum_code>  (336) 
T

>  <parent_uuid>  (336) 
38ce1dff-635b-49bf-aa41-0dda23e4ce8b

>  <o3da_score>  (336) 
94.296207715994541

>  <o3da_score_rel>  (336) 
0.37540690376773417

>  <o3da_align>  (336) 
0.36342228006025196

>  <RMSD>  (336) 
0.66184831129599686

>  <CONVERGED>  (336) 
0

>  <ENERGY>  (336) 
-4.3815385131897697

$$$$
d38d285b-6b1c-4058-a472-10958f2a6204
     RDKit          3D

 16 17  0  0  0  0  0  0  0  0999 V2000
   -2.7009   31.3816    4.9054 C   0  0  0  0  0  0  0  0  0  0  0  0
   -2.3209   30.7992    3.7592 C   0  0  0  0  0  0  0  0  0  0  0  0
   -1.2091   31.2530    3.0874 N   0  0  0  0  0  0  0  0  0  0  0  0
   -1.0885   30.6700    1.9385 C   0  0  0  0  0  0  0  0  0  0  0  0
   -0.0398   30.9508    1.1217 N   0  0  0  0  0  0  0  0  0  0  0  0
   -0.1932   31.9496    0.3248 C   0  0  0  0  0  0  0  0  0  0  0  0
    0.8859   32.3920   -0.6101 C   0  0  0  0  0  0  0  0  0  0  0  0
   -1.3276   32.6706    0.2471 O   0  0  0  0  0  0  0  0  0  0  0  0
   -2.2500   29.4477    1.4913 S   0  0  0  0  0  0  0  0  0  0  0  0
   -3.0744   29.6529    3.1062 C   0  0  1  0  0  0  0  0  0  0  0  0
   -3.0909   28.3663    3.9128 C   0  0  0  0  0  0  0  0  0  0  0  0
   -1.9144   27.7819    4.3909 C   0  0  0  0  0  0  0  0  0  0  0  0
   -1.9912   26.6011    5.1251 C   0  0  0  0  0  0  0  0  0  0  0  0
   -3.2325   26.0287    5.3669 C   0  0  0  0  0  0  0  0  0  0  0  0
   -4.3530   26.6649    4.8636 C   0  0  0  0  0  0  0  0  0  0  0  0
   -4.3114   27.8122    4.1506 N   0  0  0  0  0  0  0  0  0  0  0  0
  1  2  2  3
  2  3  1  0
  3  4  2  0
  4  5  1  0
  5  6  2  3
  6  7  1  0
  6  8  1  0
  4  9  1  0
  9 10  1  0
 10 11  1  1
 11 12  2  0
 12 13  1  0
 13 14  2  0
 14 15  1  0
 15 16  2  0
 10  2  1  0
 16 11  1  0
M  END
>  <Energy>  (337) 
-12.337850718556737

>  <Energy_Delta>  (337) 
0.02338550854915411

>  <std_smi>  (337) 
CC(=O)Nc1nc(C)c(-c2ccccn2)s1

>  <enum_smi>  (337) 
C=C1N=C(N=C(C)O)SC1c1ccccn1

>  <enum_code>  (337) 
T

>  <parent_uuid>  (337) 
38ce1dff-635b-49bf-aa41-0dda23e4ce8b

>  <o3da_score>  (337) 
96.813197685071799

>  <o3da_score_rel>  (337) 
0.38542740654290003

>  <o3da_align>  (337) 
0.46820330907205665

>  <RMSD>  (337) 
0.66183865490003613

>  <CONVERGED>  (337) 
0

>  <ENERGY>  (337) 
-4.381538513187726

$$$$
d38d285b-6b1c-4058-a472-10958f2a6204
     RDKit          3D

 16 17  0  0  0  0  0  0  0  0999 V2000
   -5.6273   28.3825    4.0923 C   0  0  0  0  0  0  0  0  0  0  0  0
   -4.4975   27.9492    4.6695 C   0  0  0  0  0  0  0  0  0  0  0  0
   -4.4024   26.6483    5.1086 N   0  0  0  0  0  0  0  0  0  0  0  0
   -3.2704   26.4303    5.6964 C   0  0  0  0  0  0  0  0  0  0  0  0
   -2.9598   25.2288    6.2466 N   0  0  0  0  0  0  0  0  0  0  0  0
   -3.0674   24.1665    5.5277 C   0  0  0  0  0  0  0  0  0  0  0  0
   -3.4684   24.0519    4.0853 C   0  0  0  0  0  0  0  0  0  0  0  0
   -2.8045   22.9841    6.1199 O   0  0  0  0  0  0  0  0  0  0  0  0
   -2.1268   27.7401    5.8102 S   0  0  0  0  0  0  0  0  0  0  0  0
   -3.2829   28.8295    4.9141 C   0  0  1  0  0  0  0  0  0  0  0  0
   -2.6659   29.4236    3.6603 C   0  0  0  0  0  0  0  0  0  0  0  0
   -2.2729   28.6255    2.5819 C   0  0  0  0  0  0  0  0  0  0  0  0
   -1.7148   29.2284    1.4574 C   0  0  0  0  0  0  0  0  0  0  0  0
   -1.5604   30.6078    1.4296 C   0  0  0  0  0  0  0  0  0  0  0  0
   -1.9751   31.3324    2.5322 C   0  0  0  0  0  0  0  0  0  0  0  0
   -2.5230   30.7764    3.6353 N   0  0  0  0  0  0  0  0  0  0  0  0
  1  2  2  3
  2  3  1  0
  3  4  2  0
  4  5  1  0
  5  6  2  3
  6  7  1  0
  6  8  1  0
  4  9  1  0
  9 10  1  0
 10 11  1  6
 11 12  2  0
 12 13  1  0
 13 14  2  0
 14 15  1  0
 15 16  2  0
 10  2  1  0
 16 11  1  0
M  END
>  <Energy>  (338) 
-11.998647544733281

>  <Energy_Delta>  (338) 
0.36258868237261055

>  <std_smi>  (338) 
CC(=O)Nc1nc(C)c(-c2ccccn2)s1

>  <enum_smi>  (338) 
C=C1N=C(N=C(C)O)SC1c1ccccn1

>  <enum_code>  (338) 
T

>  <parent_uuid>  (338) 
38ce1dff-635b-49bf-aa41-0dda23e4ce8b

>  <o3da_score>  (338) 
80.311123513554207

>  <o3da_score_rel>  (338) 
0.31973025158272106

>  <o3da_align>  (338) 
0.4746944187359633

>  <RMSD>  (338) 
0.070221152600703274

>  <CONVERGED>  (338) 
0

>  <ENERGY>  (338) 
-3.9062425233685376

$$$$
d38d285b-6b1c-4058-a472-10958f2a6204
     RDKit          3D

 16 17  0  0  0  0  0  0  0  0999 V2000
   -1.3018   33.3034    3.4694 C   0  0  0  0  0  0  0  0  0  0  0  0
   -0.9821   32.5293    2.4225 C   0  0  0  0  0  0  0  0  0  0  0  0
   -0.2778   33.0569    1.3644 N   0  0  0  0  0  0  0  0  0  0  0  0
   -0.0026   32.1511    0.4822 C   0  0  0  0  0  0  0  0  0  0  0  0
    0.7182   32.4238   -0.6353 N   0  0  0  0  0  0  0  0  0  0  0  0
    0.3494   33.3961   -1.3940 C   0  0  0  0  0  0  0  0  0  0  0  0
   -0.8419   34.2976   -1.2440 C   0  0  0  0  0  0  0  0  0  0  0  0
    1.1179   33.6760   -2.4660 O   0  0  0  0  0  0  0  0  0  0  0  0
   -0.5514   30.5215    0.7648 S   0  0  0  0  0  0  0  0  0  0  0  0
   -1.3227   31.0510    2.3303 C   0  0  2  0  0  0  0  0  0  0  0  0
   -2.8074   30.7367    2.3805 C   0  0  0  0  0  0  0  0  0  0  0  0
   -3.7178   31.3320    1.5023 C   0  0  0  0  0  0  0  0  0  0  0  0
   -5.0683   31.0057    1.5983 C   0  0  0  0  0  0  0  0  0  0  0  0
   -5.4830   30.0975    2.5629 C   0  0  0  0  0  0  0  0  0  0  0  0
   -4.5257   29.5516    3.3986 C   0  0  0  0  0  0  0  0  0  0  0  0
   -3.2096   29.8512    3.3320 N   0  0  0  0  0  0  0  0  0  0  0  0
  1  2  2  3
  2  3  1  0
  3  4  2  0
  4  5  1  0
  5  6  2  3
  6  7  1  0
  6  8  1  0
  4  9  1  0
  9 10  1  0
 10 11  1  6
 11 12  2  0
 12 13  1  0
 13 14  2  0
 14 15  1  0
 15 16  2  0
 10  2  1  0
 16 11  1  0
M  END
>  <Energy>  (339) 
-11.998647544368534

>  <Energy_Delta>  (339) 
0.362588682737357

>  <std_smi>  (339) 
CC(=O)Nc1nc(C)c(-c2ccccn2)s1

>  <enum_smi>  (339) 
C=C1N=C(N=C(C)O)SC1c1ccccn1

>  <enum_code>  (339) 
T

>  <parent_uuid>  (339) 
38ce1dff-635b-49bf-aa41-0dda23e4ce8b

>  <o3da_score>  (339) 
75.353010595409273

>  <o3da_score_rel>  (339) 
0.29999128366221284

>  <o3da_align>  (339) 
0.28318620145410661

>  <RMSD>  (339) 
0.070223451893419428

>  <CONVERGED>  (339) 
0

>  <ENERGY>  (339) 
-3.9062425233667382

$$$$
d38d285b-6b1c-4058-a472-10958f2a6204
     RDKit          3D

 16 17  0  0  0  0  0  0  0  0999 V2000
   -5.7921   28.5630    4.3837 C   0  0  0  0  0  0  0  0  0  0  0  0
   -4.6454   27.9417    4.6945 C   0  0  0  0  0  0  0  0  0  0  0  0
   -4.6192   26.5740    4.8463 N   0  0  0  0  0  0  0  0  0  0  0  0
   -3.4692   26.1808    5.2907 C   0  0  0  0  0  0  0  0  0  0  0  0
   -3.2007   24.8673    5.5059 N   0  0  0  0  0  0  0  0  0  0  0  0
   -3.2072   24.0872    4.4811 C   0  0  0  0  0  0  0  0  0  0  0  0
   -3.4511   24.4458    3.0424 C   0  0  0  0  0  0  0  0  0  0  0  0
   -2.9882   22.7733    4.6925 O   0  0  0  0  0  0  0  0  0  0  0  0
   -2.2622   27.3803    5.6697 S   0  0  0  0  0  0  0  0  0  0  0  0
   -3.3339   28.6655    4.9469 C   0  0  1  0  0  0  0  0  0  0  0  0
   -2.7000   29.2733    3.7052 C   0  0  0  0  0  0  0  0  0  0  0  0
   -2.1848   30.5701    3.7599 C   0  0  0  0  0  0  0  0  0  0  0  0
   -1.5901   31.1126    2.6234 C   0  0  0  0  0  0  0  0  0  0  0  0
   -1.5170   30.3529    1.4634 C   0  0  0  0  0  0  0  0  0  0  0  0
   -2.0417   29.0733    1.4874 C   0  0  0  0  0  0  0  0  0  0  0  0
   -2.6236   28.5201    2.5735 N   0  0  0  0  0  0  0  0  0  0  0  0
  1  2  2  3
  2  3  1  0
  3  4  2  0
  4  5  1  0
  5  6  2  3
  6  7  1  0
  6  8  1  0
  4  9  1  0
  9 10  1  0
 10 11  1  6
 11 12  2  0
 12 13  1  0
 13 14  2  0
 14 15  1  0
 15 16  2  0
 10  2  1  0
 16 11  1  0
M  END
>  <Energy>  (340) 
-10.523880536307813

>  <Energy_Delta>  (340) 
1.8373556907980788

>  <std_smi>  (340) 
CC(=O)Nc1nc(C)c(-c2ccccn2)s1

>  <enum_smi>  (340) 
C=C1N=C(N=C(C)O)SC1c1ccccn1

>  <enum_code>  (340) 
T

>  <parent_uuid>  (340) 
38ce1dff-635b-49bf-aa41-0dda23e4ce8b

>  <o3da_score>  (340) 
95.046800269741425

>  <o3da_score_rel>  (340) 
0.37839512178220519

>  <o3da_align>  (340) 
0.40419451357486436

>  <RMSD>  (340) 
0.069529253334501606

>  <CONVERGED>  (340) 
0

>  <ENERGY>  (340) 
-2.7219193243716173

$$$$
d38d285b-6b1c-4058-a472-10958f2a6204
     RDKit          3D

 16 17  0  0  0  0  0  0  0  0999 V2000
   -1.6927   30.7996    5.2879 C   0  0  0  0  0  0  0  0  0  0  0  0
   -1.5890   30.3614    4.0246 C   0  0  0  0  0  0  0  0  0  0  0  0
   -0.6979   30.9617    3.1633 N   0  0  0  0  0  0  0  0  0  0  0  0
   -0.7871   30.4569    1.9756 C   0  0  0  0  0  0  0  0  0  0  0  0
    0.0225   30.8882    0.9720 N   0  0  0  0  0  0  0  0  0  0  0  0
   -0.3863   31.9191    0.3191 C   0  0  0  0  0  0  0  0  0  0  0  0
    0.4135   32.5246   -0.7888 C   0  0  0  0  0  0  0  0  0  0  0  0
   -1.5610   32.5310    0.5554 O   0  0  0  0  0  0  0  0  0  0  0  0
   -1.8887   29.1320    1.7037 S   0  0  0  0  0  0  0  0  0  0  0  0
   -2.3778   29.1916    3.4587 C   0  0  2  0  0  0  0  0  0  0  0  0
   -3.8892   29.2543    3.6107 C   0  0  0  0  0  0  0  0  0  0  0  0
   -4.6065   28.0733    3.8183 C   0  0  0  0  0  0  0  0  0  0  0  0
   -5.9935   28.1303    3.9321 C   0  0  0  0  0  0  0  0  0  0  0  0
   -6.6355   29.3570    3.8296 C   0  0  0  0  0  0  0  0  0  0  0  0
   -5.8604   30.4818    3.6135 C   0  0  0  0  0  0  0  0  0  0  0  0
   -4.5150   30.4563    3.5005 N   0  0  0  0  0  0  0  0  0  0  0  0
  1  2  2  3
  2  3  1  0
  3  4  2  0
  4  5  1  0
  5  6  2  3
  6  7  1  0
  6  8  1  0
  4  9  1  0
  9 10  1  0
 10 11  1  6
 11 12  2  0
 12 13  1  0
 13 14  2  0
 14 15  1  0
 15 16  2  0
 10  2  1  0
 16 11  1  0
M  END
>  <Energy>  (341) 
-10.132452711699687

>  <Energy_Delta>  (341) 
2.2287835154062048

>  <std_smi>  (341) 
CC(=O)Nc1nc(C)c(-c2ccccn2)s1

>  <enum_smi>  (341) 
C=C1N=C(N=C(C)O)SC1c1ccccn1

>  <enum_code>  (341) 
T

>  <parent_uuid>  (341) 
38ce1dff-635b-49bf-aa41-0dda23e4ce8b

>  <o3da_score>  (341) 
87.889238845294571

>  <o3da_score_rel>  (341) 
0.34989982978730561

>  <o3da_align>  (341) 
0.59962747092513147

>  <RMSD>  (341) 
0.53345196570257913

>  <CONVERGED>  (341) 
0

>  <ENERGY>  (341) 
-0.69478359154825631

$$$$
d38d285b-6b1c-4058-a472-10958f2a6204
     RDKit          3D

 16 17  0  0  0  0  0  0  0  0999 V2000
   -5.7214   28.6700    4.2675 C   0  0  0  0  0  0  0  0  0  0  0  0
   -4.6467   27.9888    4.6916 C   0  0  0  0  0  0  0  0  0  0  0  0
   -4.7706   26.6613    5.0364 N   0  0  0  0  0  0  0  0  0  0  0  0
   -3.6233   26.1535    5.3510 C   0  0  0  0  0  0  0  0  0  0  0  0
   -3.5197   24.8574    5.7485 N   0  0  0  0  0  0  0  0  0  0  0  0
   -3.3938   23.9863    4.8096 C   0  0  0  0  0  0  0  0  0  0  0  0
   -3.3016   22.5219    5.0937 C   0  0  0  0  0  0  0  0  0  0  0  0
   -3.3173   24.3054    3.5048 O   0  0  0  0  0  0  0  0  0  0  0  0
   -2.2191   27.1884    5.3652 S   0  0  0  0  0  0  0  0  0  0  0  0
   -3.2633   28.5953    4.8619 C   0  0  1  0  0  0  0  0  0  0  0  0
   -2.6822   29.3120    3.6536 C   0  0  0  0  0  0  0  0  0  0  0  0
   -1.8766   30.4373    3.8465 C   0  0  0  0  0  0  0  0  0  0  0  0
   -1.3248   31.0774    2.7393 C   0  0  0  0  0  0  0  0  0  0  0  0
   -1.5799   30.5806    1.4682 C   0  0  0  0  0  0  0  0  0  0  0  0
   -2.3779   29.4567    1.3561 C   0  0  0  0  0  0  0  0  0  0  0  0
   -2.9267   28.8171    2.4112 N   0  0  0  0  0  0  0  0  0  0  0  0
  1  2  2  3
  2  3  1  0
  3  4  2  0
  4  5  1  0
  5  6  2  3
  6  7  1  0
  6  8  1  0
  4  9  1  0
  9 10  1  0
 10 11  1  6
 11 12  2  0
 12 13  1  0
 13 14  2  0
 14 15  1  0
 15 16  2  0
 10  2  1  0
 16 11  1  0
M  END
>  <Energy>  (342) 
-10.132452711557292

>  <Energy_Delta>  (342) 
2.2287835155485993

>  <std_smi>  (342) 
CC(=O)Nc1nc(C)c(-c2ccccn2)s1

>  <enum_smi>  (342) 
C=C1N=C(N=C(C)O)SC1c1ccccn1

>  <enum_code>  (342) 
T

>  <parent_uuid>  (342) 
38ce1dff-635b-49bf-aa41-0dda23e4ce8b

>  <o3da_score>  (342) 
98.305470348061931

>  <o3da_score_rel>  (342) 
0.39136836083533161

>  <o3da_align>  (342) 
0.41945218585435839

>  <RMSD>  (342) 
0.53346394692078225

>  <CONVERGED>  (342) 
0

>  <ENERGY>  (342) 
-0.69478359153824254

$$$$
d38d285b-6b1c-4058-a472-10958f2a6204
     RDKit          3D

 16 17  0  0  0  0  0  0  0  0999 V2000
   -1.1671   27.2597    5.6658 C   0  0  0  0  0  0  0  0  0  0  0  0
   -2.4438   27.3449    5.2643 C   0  0  0  0  0  0  0  0  0  0  0  0
   -3.2311   26.2156    5.2355 N   0  0  0  0  0  0  0  0  0  0  0  0
   -4.4455   26.4993    4.8918 C   0  0  0  0  0  0  0  0  0  0  0  0
   -5.4066   25.5483    4.7573 N   0  0  0  0  0  0  0  0  0  0  0  0
   -5.5796   24.6921    5.7026 C   0  0  0  0  0  0  0  0  0  0  0  0
   -4.8728   24.5999    7.0241 C   0  0  0  0  0  0  0  0  0  0  0  0
   -6.5051   23.7298    5.5090 O   0  0  0  0  0  0  0  0  0  0  0  0
   -4.8554   28.1652    4.5809 S   0  0  0  0  0  0  0  0  0  0  0  0
   -3.1213   28.6469    4.8682 C   0  0  2  0  0  0  0  0  0  0  0  0
   -2.5407   29.3659    3.6607 C   0  0  0  0  0  0  0  0  0  0  0  0
   -2.6659   30.7544    3.5645 C   0  0  0  0  0  0  0  0  0  0  0  0
   -2.1592   31.4074    2.4434 C   0  0  0  0  0  0  0  0  0  0  0  0
   -1.5478   30.6656    1.4416 C   0  0  0  0  0  0  0  0  0  0  0  0
   -1.4690   29.2943    1.6021 C   0  0  0  0  0  0  0  0  0  0  0  0
   -1.9481   28.6360    2.6796 N   0  0  0  0  0  0  0  0  0  0  0  0
  1  2  2  3
  2  3  1  0
  3  4  2  0
  4  5  1  0
  5  6  2  3
  6  7  1  0
  6  8  1  0
  4  9  1  0
  9 10  1  0
 10 11  1  6
 11 12  2  0
 12 13  1  0
 13 14  2  0
 14 15  1  0
 15 16  2  0
 10  2  1  0
 16 11  1  0
M  END
>  <Energy>  (343) 
-8.9799521787863803

>  <Energy_Delta>  (343) 
3.381284048319511

>  <std_smi>  (343) 
CC(=O)Nc1nc(C)c(-c2ccccn2)s1

>  <enum_smi>  (343) 
C=C1N=C(N=C(C)O)SC1c1ccccn1

>  <enum_code>  (343) 
T

>  <parent_uuid>  (343) 
38ce1dff-635b-49bf-aa41-0dda23e4ce8b

>  <o3da_score>  (343) 
77.343841332933906

>  <o3da_score_rel>  (343) 
0.30791707008779978

>  <o3da_align>  (343) 
0.43718980900800447

>  <RMSD>  (343) 
0.084066628070633323

>  <CONVERGED>  (343) 
0

>  <ENERGY>  (343) 
-0.74785764974061353

$$$$
d38d285b-6b1c-4058-a472-10958f2a6204
     RDKit          3D

 16 17  0  0  0  0  0  0  0  0999 V2000
   -2.2846   29.4392    6.8079 C   0  0  0  0  0  0  0  0  0  0  0  0
   -2.5018   29.5379    5.4883 C   0  0  0  0  0  0  0  0  0  0  0  0
   -1.6740   30.3188    4.7130 N   0  0  0  0  0  0  0  0  0  0  0  0
   -2.0754   30.3507    3.4837 C   0  0  0  0  0  0  0  0  0  0  0  0
   -1.4049   31.0271    2.5146 N   0  0  0  0  0  0  0  0  0  0  0  0
   -1.0611   32.2494    2.7251 C   0  0  0  0  0  0  0  0  0  0  0  0
   -1.3371   33.1067    3.9265 C   0  0  0  0  0  0  0  0  0  0  0  0
   -0.3486   32.8702    1.7622 O   0  0  0  0  0  0  0  0  0  0  0  0
   -3.5266   29.4827    3.0587 S   0  0  0  0  0  0  0  0  0  0  0  0
   -3.6593   28.8650    4.7683 C   0  0  1  0  0  0  0  0  0  0  0  0
   -3.6813   27.3451    4.8060 C   0  0  0  0  0  0  0  0  0  0  0  0
   -4.9044   26.6751    4.7171 C   0  0  0  0  0  0  0  0  0  0  0  0
   -4.9195   25.2823    4.7222 C   0  0  0  0  0  0  0  0  0  0  0  0
   -3.7199   24.5886    4.8076 C   0  0  0  0  0  0  0  0  0  0  0  0
   -2.5485   25.3197    4.8831 C   0  0  0  0  0  0  0  0  0  0  0  0
   -2.5049   26.6695    4.8838 N   0  0  0  0  0  0  0  0  0  0  0  0
  1  2  2  3
  2  3  1  0
  3  4  2  0
  4  5  1  0
  5  6  2  3
  6  7  1  0
  6  8  1  0
  4  9  1  0
  9 10  1  0
 10 11  1  6
 11 12  2  0
 12 13  1  0
 13 14  2  0
 14 15  1  0
 15 16  2  0
 10  2  1  0
 16 11  1  0
M  END
>  <Energy>  (344) 
-8.9799521781810405

>  <Energy_Delta>  (344) 
3.3812840489248508

>  <std_smi>  (344) 
CC(=O)Nc1nc(C)c(-c2ccccn2)s1

>  <enum_smi>  (344) 
C=C1N=C(N=C(C)O)SC1c1ccccn1

>  <enum_code>  (344) 
T

>  <parent_uuid>  (344) 
38ce1dff-635b-49bf-aa41-0dda23e4ce8b

>  <o3da_score>  (344) 
83.25131830442146

>  <o3da_score_rel>  (344) 
0.33143559424334934

>  <o3da_align>  (344) 
0.60886813715488619

>  <RMSD>  (344) 
0.084056752586698202

>  <CONVERGED>  (344) 
0

>  <ENERGY>  (344) 
-0.74785764974074587

$$$$
4c75a871-678f-4baa-a09d-463f28e282d8
     RDKit          3D

 16 17  0  0  0  0  0  0  0  0999 V2000
   -4.1615   29.3301    0.9182 C   0  0  0  0  0  0  0  0  0  0  0  0
   -3.1203   28.7980    1.5731 C   0  0  0  0  0  0  0  0  0  0  0  0
   -3.3319   27.9662    2.6502 N   0  0  0  0  0  0  0  0  0  0  0  0
   -2.2294   27.4351    3.0472 C   0  0  0  0  0  0  0  0  0  0  0  0
   -2.0492   26.5567    4.0734 N   0  0  0  0  0  0  0  0  0  0  0  0
   -3.0253   26.0564    4.9150 C   0  0  0  0  0  0  0  0  0  0  0  0
   -2.4911   25.0132    5.8632 C   0  0  0  0  0  0  0  0  0  0  0  0
   -4.1946   26.4169    4.9690 O   0  0  0  0  0  0  0  0  0  0  0  0
   -0.7504   27.8330    2.2290 S   0  0  0  0  0  0  0  0  0  0  0  0
   -1.6695   29.0228    1.1760 C   0  0  2  0  0  0  0  0  0  0  0  0
   -1.1639   30.4423    1.3611 C   0  0  0  0  0  0  0  0  0  0  0  0
   -1.4167   31.1699    2.5276 C   0  0  0  0  0  0  0  0  0  0  0  0
   -0.9175   32.4648    2.6430 C   0  0  0  0  0  0  0  0  0  0  0  0
   -0.1765   33.0049    1.6008 C   0  0  0  0  0  0  0  0  0  0  0  0
    0.0359   32.2241    0.4790 C   0  0  0  0  0  0  0  0  0  0  0  0
   -0.4365   30.9659    0.3369 N   0  0  0  0  0  0  0  0  0  0  0  0
  1  2  2  3
  2  3  1  0
  3  4  2  0
  4  5  1  0
  5  6  1  0
  6  7  1  0
  6  8  2  0
  4  9  1  0
  9 10  1  0
 10 11  1  1
 11 12  2  0
 12 13  1  0
 13 14  2  0
 14 15  1  0
 15 16  2  0
 10  2  1  0
 16 11  1  0
M  END
>  <Energy>  (345) 
-12.709565845490259

>  <Energy_Delta>  (345) 
0

>  <std_smi>  (345) 
CC(=O)Nc1nc(C)c(-c2ccccn2)s1

>  <enum_smi>  (345) 
C=C1N=C(NC(C)=O)SC1c1ccccn1

>  <enum_code>  (345) 
T

>  <parent_uuid>  (345) 
38ce1dff-635b-49bf-aa41-0dda23e4ce8b

>  <o3da_score>  (345) 
80.11461975232703

>  <o3da_score_rel>  (345) 
0.31894794155808903

>  <o3da_align>  (345) 
0.44522589230757081

>  <RMSD>  (345) 
5.3323742350432784e-05

>  <CONVERGED>  (345) 
0

>  <ENERGY>  (345) 
-12.709565845672902

$$$$
4c75a871-678f-4baa-a09d-463f28e282d8
     RDKit          3D

 16 17  0  0  0  0  0  0  0  0999 V2000
   -5.7412   28.6199    4.3627 C   0  0  0  0  0  0  0  0  0  0  0  0
   -4.5811   27.9840    4.5776 C   0  0  0  0  0  0  0  0  0  0  0  0
   -4.5387   26.6074    4.5902 N   0  0  0  0  0  0  0  0  0  0  0  0
   -3.3818   26.1842    4.9612 C   0  0  0  0  0  0  0  0  0  0  0  0
   -2.9717   24.8920    5.1010 N   0  0  0  0  0  0  0  0  0  0  0  0
   -3.7209   23.7544    4.8637 C   0  0  0  0  0  0  0  0  0  0  0  0
   -2.9508   22.4872    5.1373 C   0  0  0  0  0  0  0  0  0  0  0  0
   -4.8885   23.7140    4.4964 O   0  0  0  0  0  0  0  0  0  0  0  0
   -2.1367   27.3338    5.3400 S   0  0  0  0  0  0  0  0  0  0  0  0
   -3.2671   28.6968    4.8570 C   0  0  1  0  0  0  0  0  0  0  0  0
   -2.7110   29.5013    3.6957 C   0  0  0  0  0  0  0  0  0  0  0  0
   -2.6623   28.9863    2.3971 C   0  0  0  0  0  0  0  0  0  0  0  0
   -2.1311   29.7686    1.3747 C   0  0  0  0  0  0  0  0  0  0  0  0
   -1.6576   31.0407    1.6659 C   0  0  0  0  0  0  0  0  0  0  0  0
   -1.7354   31.4815    2.9746 C   0  0  0  0  0  0  0  0  0  0  0  0
   -2.2465   30.7469    3.9874 N   0  0  0  0  0  0  0  0  0  0  0  0
  1  2  2  3
  2  3  1  0
  3  4  2  0
  4  5  1  0
  5  6  1  0
  6  7  1  0
  6  8  2  0
  4  9  1  0
  9 10  1  0
 10 11  1  6
 11 12  2  0
 12 13  1  0
 13 14  2  0
 14 15  1  0
 15 16  2  0
 10  2  1  0
 16 11  1  0
M  END
>  <Energy>  (346) 
-12.709565844038652

>  <Energy_Delta>  (346) 
1.4516068347347755e-09

>  <std_smi>  (346) 
CC(=O)Nc1nc(C)c(-c2ccccn2)s1

>  <enum_smi>  (346) 
C=C1N=C(NC(C)=O)SC1c1ccccn1

>  <enum_code>  (346) 
T

>  <parent_uuid>  (346) 
38ce1dff-635b-49bf-aa41-0dda23e4ce8b

>  <o3da_score>  (346) 
91.70918318296944

>  <o3da_score_rel>  (346) 
0.36510758321775844

>  <o3da_align>  (346) 
0.50948624441595713

>  <RMSD>  (346) 
0.044174126458393831

>  <CONVERGED>  (346) 
0

>  <ENERGY>  (346) 
-12.65695093462128

$$$$
4c75a871-678f-4baa-a09d-463f28e282d8
     RDKit          3D

 16 17  0  0  0  0  0  0  0  0999 V2000
   -0.1716   27.8649    3.0570 C   0  0  0  0  0  0  0  0  0  0  0  0
   -1.4487   28.2655    2.9827 C   0  0  0  0  0  0  0  0  0  0  0  0
   -2.3515   27.8829    3.9513 N   0  0  0  0  0  0  0  0  0  0  0  0
   -3.5397   28.3030    3.6687 C   0  0  0  0  0  0  0  0  0  0  0  0
   -4.5569   27.9946    4.5311 N   0  0  0  0  0  0  0  0  0  0  0  0
   -5.9077   28.3121    4.5008 C   0  0  0  0  0  0  0  0  0  0  0  0
   -6.6758   27.6587    5.6217 C   0  0  0  0  0  0  0  0  0  0  0  0
   -6.4607   29.0690    3.7132 O   0  0  0  0  0  0  0  0  0  0  0  0
   -3.7863   29.2195    2.2260 S   0  0  0  0  0  0  0  0  0  0  0  0
   -2.0025   29.1168    1.8485 C   0  0  1  0  0  0  0  0  0  0  0  0
   -1.3510   30.4802    1.7033 C   0  0  0  0  0  0  0  0  0  0  0  0
   -1.3199   31.3989    2.7562 C   0  0  0  0  0  0  0  0  0  0  0  0
   -0.7016   32.6320    2.5651 C   0  0  0  0  0  0  0  0  0  0  0  0
   -0.1274   32.9230    1.3351 C   0  0  0  0  0  0  0  0  0  0  0  0
   -0.1922   31.9626    0.3420 C   0  0  0  0  0  0  0  0  0  0  0  0
   -0.7810   30.7563    0.4985 N   0  0  0  0  0  0  0  0  0  0  0  0
  1  2  2  3
  2  3  1  0
  3  4  2  0
  4  5  1  0
  5  6  1  0
  6  7  1  0
  6  8  2  0
  4  9  1  0
  9 10  1  0
 10 11  1  1
 11 12  2  0
 12 13  1  0
 13 14  2  0
 14 15  1  0
 15 16  2  0
 10  2  1  0
 16 11  1  0
M  END
>  <Energy>  (347) 
-12.595165575118827

>  <Energy_Delta>  (347) 
0.11440027037143174

>  <std_smi>  (347) 
CC(=O)Nc1nc(C)c(-c2ccccn2)s1

>  <enum_smi>  (347) 
C=C1N=C(NC(C)=O)SC1c1ccccn1

>  <enum_code>  (347) 
T

>  <parent_uuid>  (347) 
38ce1dff-635b-49bf-aa41-0dda23e4ce8b

>  <o3da_score>  (347) 
78.613757510309355

>  <o3da_score_rel>  (347) 
0.31297279090351837

>  <o3da_align>  (347) 
0.44782269545401954

>  <RMSD>  (347) 
6.7822438330203869e-05

>  <CONVERGED>  (347) 
0

>  <ENERGY>  (347) 
-12.595165575234262

$$$$
4c75a871-678f-4baa-a09d-463f28e282d8
     RDKit          3D

 16 17  0  0  0  0  0  0  0  0999 V2000
   -1.3310   27.4589    5.8917 C   0  0  0  0  0  0  0  0  0  0  0  0
   -2.5530   27.4518    5.3405 C   0  0  0  0  0  0  0  0  0  0  0  0
   -3.1872   26.2564    5.0791 N   0  0  0  0  0  0  0  0  0  0  0  0
   -4.3777   26.4545    4.6190 C   0  0  0  0  0  0  0  0  0  0  0  0
   -5.1439   25.3612    4.3166 N   0  0  0  0  0  0  0  0  0  0  0  0
   -6.4308   25.2589    3.8062 C   0  0  0  0  0  0  0  0  0  0  0  0
   -6.8684   23.8254    3.6408 C   0  0  0  0  0  0  0  0  0  0  0  0
   -7.1820   26.1850    3.5294 O   0  0  0  0  0  0  0  0  0  0  0  0
   -4.9370   28.0740    4.4039 S   0  0  0  0  0  0  0  0  0  0  0  0
   -3.3332   28.7137    4.9986 C   0  0  2  0  0  0  0  0  0  0  0  0
   -2.6539   29.6264    3.9936 C   0  0  0  0  0  0  0  0  0  0  0  0
   -2.2725   29.1748    2.7270 C   0  0  0  0  0  0  0  0  0  0  0  0
   -1.6467   30.0572    1.8500 C   0  0  0  0  0  0  0  0  0  0  0  0
   -1.4128   31.3655    2.2513 C   0  0  0  0  0  0  0  0  0  0  0  0
   -1.8131   31.7391    3.5214 C   0  0  0  0  0  0  0  0  0  0  0  0
   -2.4181   30.9051    4.3959 N   0  0  0  0  0  0  0  0  0  0  0  0
  1  2  2  3
  2  3  1  0
  3  4  2  0
  4  5  1  0
  5  6  1  0
  6  7  1  0
  6  8  2  0
  4  9  1  0
  9 10  1  0
 10 11  1  6
 11 12  2  0
 12 13  1  0
 13 14  2  0
 14 15  1  0
 15 16  2  0
 10  2  1  0
 16 11  1  0
M  END
>  <Energy>  (348) 
-12.547904517252389

>  <Energy_Delta>  (348) 
0.16166132823786938

>  <std_smi>  (348) 
CC(=O)Nc1nc(C)c(-c2ccccn2)s1

>  <enum_smi>  (348) 
C=C1N=C(NC(C)=O)SC1c1ccccn1

>  <enum_code>  (348) 
T

>  <parent_uuid>  (348) 
38ce1dff-635b-49bf-aa41-0dda23e4ce8b

>  <o3da_score>  (348) 
74.923748430154319

>  <o3da_score_rel>  (348) 
0.29828232861230936

>  <o3da_align>  (348) 
0.51106137771951965

>  <RMSD>  (348) 
5.6299103329259649e-05

>  <CONVERGED>  (348) 
0

>  <ENERGY>  (348) 
-12.54790451733767

$$$$
4c75a871-678f-4baa-a09d-463f28e282d8
     RDKit          3D

 16 17  0  0  0  0  0  0  0  0999 V2000
   -1.2584   27.2380    5.7229 C   0  0  0  0  0  0  0  0  0  0  0  0
   -2.5030   27.3021    5.2281 C   0  0  0  0  0  0  0  0  0  0  0  0
   -3.2504   26.1515    5.0919 N   0  0  0  0  0  0  0  0  0  0  0  0
   -4.4413   26.4246    4.6745 C   0  0  0  0  0  0  0  0  0  0  0  0
   -5.3057   25.3850    4.4611 N   0  0  0  0  0  0  0  0  0  0  0  0
   -6.6265   25.3682    4.0364 C   0  0  0  0  0  0  0  0  0  0  0  0
   -7.1325   23.9685    3.7948 C   0  0  0  0  0  0  0  0  0  0  0  0
   -7.3658   26.3367    3.9122 O   0  0  0  0  0  0  0  0  0  0  0  0
   -4.8866   28.0717    4.4098 S   0  0  0  0  0  0  0  0  0  0  0  0
   -3.1924   28.6018    4.8351 C   0  0  2  0  0  0  0  0  0  0  0  0
   -2.5558   29.3753    3.6907 C   0  0  0  0  0  0  0  0  0  0  0  0
   -2.7100   30.7630    3.6350 C   0  0  0  0  0  0  0  0  0  0  0  0
   -2.1509   31.4679    2.5719 C   0  0  0  0  0  0  0  0  0  0  0  0
   -1.4589   30.7775    1.5861 C   0  0  0  0  0  0  0  0  0  0  0  0
   -1.3560   29.4032    1.7030 C   0  0  0  0  0  0  0  0  0  0  0  0
   -1.8858   28.6940    2.7231 N   0  0  0  0  0  0  0  0  0  0  0  0
  1  2  2  3
  2  3  1  0
  3  4  2  0
  4  5  1  0
  5  6  1  0
  6  7  1  0
  6  8  2  0
  4  9  1  0
  9 10  1  0
 10 11  1  6
 11 12  2  0
 12 13  1  0
 13 14  2  0
 14 15  1  0
 15 16  2  0
 10  2  1  0
 16 11  1  0
M  END
>  <Energy>  (349) 
-10.187346770189105

>  <Energy_Delta>  (349) 
2.5222190753011535

>  <std_smi>  (349) 
CC(=O)Nc1nc(C)c(-c2ccccn2)s1

>  <enum_smi>  (349) 
C=C1N=C(NC(C)=O)SC1c1ccccn1

>  <enum_code>  (349) 
T

>  <parent_uuid>  (349) 
38ce1dff-635b-49bf-aa41-0dda23e4ce8b

>  <o3da_score>  (349) 
80.026196230479982

>  <o3da_score_rel>  (349) 
0.31859591467004261

>  <o3da_align>  (349) 
0.53332380363170195

>  <RMSD>  (349) 
6.8731573296748497e-05

>  <CONVERGED>  (349) 
0

>  <ENERGY>  (349) 
-10.187346770352081

$$$$
4c75a871-678f-4baa-a09d-463f28e282d8
     RDKit          3D

 16 17  0  0  0  0  0  0  0  0999 V2000
   -5.6603   28.2360    4.1532 C   0  0  0  0  0  0  0  0  0  0  0  0
   -4.4728   27.7732    4.5695 C   0  0  0  0  0  0  0  0  0  0  0  0
   -4.3098   26.4288    4.8293 N   0  0  0  0  0  0  0  0  0  0  0  0
   -3.1278   26.1907    5.2908 C   0  0  0  0  0  0  0  0  0  0  0  0
   -2.7945   24.8942    5.5762 N   0  0  0  0  0  0  0  0  0  0  0  0
   -1.6284   24.3423    6.0870 C   0  0  0  0  0  0  0  0  0  0  0  0
   -1.6612   22.8349    6.0889 C   0  0  0  0  0  0  0  0  0  0  0  0
   -0.6749   24.9534    6.5533 O   0  0  0  0  0  0  0  0  0  0  0  0
   -2.0329   27.5046    5.5279 S   0  0  0  0  0  0  0  0  0  0  0  0
   -3.2621   28.6595    4.8298 C   0  0  1  0  0  0  0  0  0  0  0  0
   -2.7010   29.3942    3.6221 C   0  0  0  0  0  0  0  0  0  0  0  0
   -2.0341   30.6078    3.8099 C   0  0  0  0  0  0  0  0  0  0  0  0
   -1.4957   31.2664    2.7072 C   0  0  0  0  0  0  0  0  0  0  0  0
   -1.6258   30.7008    1.4460 C   0  0  0  0  0  0  0  0  0  0  0  0
   -2.2900   29.4924    1.3389 C   0  0  0  0  0  0  0  0  0  0  0  0
   -2.8237   28.8325    2.3897 N   0  0  0  0  0  0  0  0  0  0  0  0
  1  2  2  3
  2  3  1  0
  3  4  2  0
  4  5  1  0
  5  6  1  0
  6  7  1  0
  6  8  2  0
  4  9  1  0
  9 10  1  0
 10 11  1  6
 11 12  2  0
 12 13  1  0
 13 14  2  0
 14 15  1  0
 15 16  2  0
 10  2  1  0
 16 11  1  0
M  END
>  <Energy>  (350) 
-10.187346770116385

>  <Energy_Delta>  (350) 
2.522219075373874

>  <std_smi>  (350) 
CC(=O)Nc1nc(C)c(-c2ccccn2)s1

>  <enum_smi>  (350) 
C=C1N=C(NC(C)=O)SC1c1ccccn1

>  <enum_code>  (350) 
T

>  <parent_uuid>  (350) 
38ce1dff-635b-49bf-aa41-0dda23e4ce8b

>  <o3da_score>  (350) 
87.290892949594024

>  <o3da_score_rel>  (350) 
0.34751772783932905

>  <o3da_align>  (350) 
0.47144901242602644

>  <RMSD>  (350) 
6.8961105767910359e-05

>  <CONVERGED>  (350) 
0

>  <ENERGY>  (350) 
-10.187346770296248

$$$$
4c75a871-678f-4baa-a09d-463f28e282d8
     RDKit          3D

 16 17  0  0  0  0  0  0  0  0999 V2000
   -1.2260   27.6086    5.8696 C   0  0  0  0  0  0  0  0  0  0  0  0
   -2.4386   27.5213    5.3044 C   0  0  0  0  0  0  0  0  0  0  0  0
   -3.0437   26.2917    5.1673 N   0  0  0  0  0  0  0  0  0  0  0  0
   -4.2300   26.4152    4.6853 C   0  0  0  0  0  0  0  0  0  0  0  0
   -5.1130   25.4217    4.3840 N   0  0  0  0  0  0  0  0  0  0  0  0
   -4.9079   24.0620    4.5243 C   0  0  0  0  0  0  0  0  0  0  0  0
   -6.0107   23.2462    3.8989 C   0  0  0  0  0  0  0  0  0  0  0  0
   -3.9942   23.5204    5.1345 O   0  0  0  0  0  0  0  0  0  0  0  0
   -4.8627   28.0005    4.3623 S   0  0  0  0  0  0  0  0  0  0  0  0
   -3.2405   28.7201    4.8225 C   0  0  2  0  0  0  0  0  0  0  0  0
   -2.6033   29.4818    3.6709 C   0  0  0  0  0  0  0  0  0  0  0  0
   -2.1378   30.7820    3.8798 C   0  0  0  0  0  0  0  0  0  0  0  0
   -1.5378   31.4664    2.8255 C   0  0  0  0  0  0  0  0  0  0  0  0
   -1.4113   30.8423    1.5915 C   0  0  0  0  0  0  0  0  0  0  0  0
   -1.8936   29.5528    1.4605 C   0  0  0  0  0  0  0  0  0  0  0  0
   -2.4825   28.8661    2.4632 N   0  0  0  0  0  0  0  0  0  0  0  0
  1  2  2  3
  2  3  1  0
  3  4  2  0
  4  5  1  0
  5  6  1  0
  6  7  1  0
  6  8  2  0
  4  9  1  0
  9 10  1  0
 10 11  1  6
 11 12  2  0
 12 13  1  0
 13 14  2  0
 14 15  1  0
 15 16  2  0
 10  2  1  0
 16 11  1  0
M  END
>  <Energy>  (351) 
-9.4588915103775584

>  <Energy_Delta>  (351) 
3.2506743351127003

>  <std_smi>  (351) 
CC(=O)Nc1nc(C)c(-c2ccccn2)s1

>  <enum_smi>  (351) 
C=C1N=C(NC(C)=O)SC1c1ccccn1

>  <enum_code>  (351) 
T

>  <parent_uuid>  (351) 
38ce1dff-635b-49bf-aa41-0dda23e4ce8b

>  <o3da_score>  (351) 
97.14811176079111

>  <o3da_score_rel>  (351) 
0.38676074813997352

>  <o3da_align>  (351) 
0.42889487536701992

>  <RMSD>  (351) 
7.900833427948277e-05

>  <CONVERGED>  (351) 
0

>  <ENERGY>  (351) 
-9.4588915105298366

$$$$
4c75a871-678f-4baa-a09d-463f28e282d8
     RDKit          3D

 16 17  0  0  0  0  0  0  0  0999 V2000
   -5.6536   28.6463    4.2820 C   0  0  0  0  0  0  0  0  0  0  0  0
   -4.5235   27.9771    4.5513 C   0  0  0  0  0  0  0  0  0  0  0  0
   -4.5414   26.6016    4.6196 N   0  0  0  0  0  0  0  0  0  0  0  0
   -3.3913   26.1446    4.9705 C   0  0  0  0  0  0  0  0  0  0  0  0
   -3.0226   24.8402    5.1121 N   0  0  0  0  0  0  0  0  0  0  0  0
   -3.8140   23.7283    4.8931 C   0  0  0  0  0  0  0  0  0  0  0  0
   -3.0265   22.4435    4.9387 C   0  0  0  0  0  0  0  0  0  0  0  0
   -5.0296   23.7153    4.7429 O   0  0  0  0  0  0  0  0  0  0  0  0
   -2.1044   27.2527    5.3364 S   0  0  0  0  0  0  0  0  0  0  0  0
   -3.1871   28.6447    4.8350 C   0  0  1  0  0  0  0  0  0  0  0  0
   -2.6121   29.4255    3.6636 C   0  0  0  0  0  0  0  0  0  0  0  0
   -2.5127   30.8162    3.7462 C   0  0  0  0  0  0  0  0  0  0  0  0
   -2.0032   31.5264    2.6617 C   0  0  0  0  0  0  0  0  0  0  0  0
   -1.6086   30.8394    1.5213 C   0  0  0  0  0  0  0  0  0  0  0  0
   -1.7389   29.4626    1.5117 C   0  0  0  0  0  0  0  0  0  0  0  0
   -2.2261   28.7475    2.5485 N   0  0  0  0  0  0  0  0  0  0  0  0
  1  2  2  3
  2  3  1  0
  3  4  2  0
  4  5  1  0
  5  6  1  0
  6  7  1  0
  6  8  2  0
  4  9  1  0
  9 10  1  0
 10 11  1  6
 11 12  2  0
 12 13  1  0
 13 14  2  0
 14 15  1  0
 15 16  2  0
 10  2  1  0
 16 11  1  0
M  END
>  <Energy>  (352) 
-9.4588915100663282

>  <Energy_Delta>  (352) 
3.2506743354239305

>  <std_smi>  (352) 
CC(=O)Nc1nc(C)c(-c2ccccn2)s1

>  <enum_smi>  (352) 
C=C1N=C(NC(C)=O)SC1c1ccccn1

>  <enum_code>  (352) 
T

>  <parent_uuid>  (352) 
38ce1dff-635b-49bf-aa41-0dda23e4ce8b

>  <o3da_score>  (352) 
95.324674108652431

>  <o3da_score_rel>  (352) 
0.37950137790883348

>  <o3da_align>  (352) 
0.47997228579584028

>  <RMSD>  (352) 
5.9360002091844365e-05

>  <CONVERGED>  (352) 
0

>  <ENERGY>  (352) 
-9.4588915105320428

$$$$
149f7127-cbfe-4e8b-80c4-cfd72b638fb6
     RDKit          3D

 16 17  0  0  0  0  0  0  0  0999 V2000
   -3.0392   31.4414    4.6830 C   0  0  0  0  0  0  0  0  0  0  0  0
   -2.6966   30.8398    3.5348 C   0  0  0  0  0  0  0  0  0  0  0  0
   -1.7678   31.3215    2.6489 N   0  0  0  0  0  0  0  0  0  0  0  0
   -1.5280   30.6608    1.4826 C   0  0  0  0  0  0  0  0  0  0  0  0
   -0.7357   30.9112    0.5027 N   0  0  0  0  0  0  0  0  0  0  0  0
    0.0399   32.0393    0.5767 C   0  0  0  0  0  0  0  0  0  0  0  0
    0.9127   32.2337   -0.6339 C   0  0  0  0  0  0  0  0  0  0  0  0
    0.0552   32.8367    1.5129 O   0  0  0  0  0  0  0  0  0  0  0  0
   -2.5304   29.2126    1.3872 S   0  0  0  0  0  0  0  0  0  0  0  0
   -3.3180   29.5319    3.0408 C   0  0  1  0  0  0  0  0  0  0  0  0
   -3.1502   28.3552    3.9870 C   0  0  0  0  0  0  0  0  0  0  0  0
   -1.8879   27.9058    4.3844 C   0  0  0  0  0  0  0  0  0  0  0  0
   -1.7951   26.8295    5.2631 C   0  0  0  0  0  0  0  0  0  0  0  0
   -2.9564   26.2274    5.7279 C   0  0  0  0  0  0  0  0  0  0  0  0
   -4.1700   26.7309    5.2954 C   0  0  0  0  0  0  0  0  0  0  0  0
   -4.2923   27.7758    4.4471 N   0  0  0  0  0  0  0  0  0  0  0  0
  1  2  2  3
  2  3  1  0
  3  4  1  0
  4  5  2  3
  5  6  1  0
  6  7  1  0
  6  8  2  0
  4  9  1  0
  9 10  1  0
 10 11  1  1
 11 12  2  0
 12 13  1  0
 13 14  2  0
 14 15  1  0
 15 16  2  0
 10  2  1  0
 16 11  1  0
M  END
>  <Energy>  (353) 
-2.0347617444745847

>  <Energy_Delta>  (353) 
0

>  <std_smi>  (353) 
CC(=O)Nc1nc(C)c(-c2ccccn2)s1

>  <enum_smi>  (353) 
C=C1NC(=NC(C)=O)SC1c1ccccn1

>  <enum_code>  (353) 
T

>  <parent_uuid>  (353) 
38ce1dff-635b-49bf-aa41-0dda23e4ce8b

>  <o3da_score>  (353) 
98.792942173096904

>  <o3da_score_rel>  (353) 
0.39330905699844299

>  <o3da_align>  (353) 
0.44762094003426534

>  <RMSD>  (353) 
7.1926582272202109e-05

>  <CONVERGED>  (353) 
0

>  <ENERGY>  (353) 
-2.034761744566477

$$$$
149f7127-cbfe-4e8b-80c4-cfd72b638fb6
     RDKit          3D

 16 17  0  0  0  0  0  0  0  0999 V2000
   -4.4147   30.1765    0.2468 C   0  0  0  0  0  0  0  0  0  0  0  0
   -3.9009   29.6053    1.3455 C   0  0  0  0  0  0  0  0  0  0  0  0
   -4.6410   29.1423    2.4026 N   0  0  0  0  0  0  0  0  0  0  0  0
   -4.0263   28.5293    3.4517 C   0  0  0  0  0  0  0  0  0  0  0  0
   -4.4890   28.0070    4.5304 N   0  0  0  0  0  0  0  0  0  0  0  0
   -5.8457   28.0332    4.7254 C   0  0  0  0  0  0  0  0  0  0  0  0
   -6.2679   27.3790    6.0134 C   0  0  0  0  0  0  0  0  0  0  0  0
   -6.6693   28.5283    3.9578 O   0  0  0  0  0  0  0  0  0  0  0  0
   -2.2814   28.4921    3.1964 S   0  0  0  0  0  0  0  0  0  0  0  0
   -2.4047   29.3693    1.5618 C   0  0  2  0  0  0  0  0  0  0  0  0
   -1.5547   30.6279    1.5265 C   0  0  0  0  0  0  0  0  0  0  0  0
   -1.7772   31.6901    2.4072 C   0  0  0  0  0  0  0  0  0  0  0  0
   -0.9737   32.8242    2.3212 C   0  0  0  0  0  0  0  0  0  0  0  0
    0.0287   32.8778    1.3621 C   0  0  0  0  0  0  0  0  0  0  0  0
    0.1854   31.7907    0.5213 C   0  0  0  0  0  0  0  0  0  0  0  0
   -0.5805   30.6787    0.5776 N   0  0  0  0  0  0  0  0  0  0  0  0
  1  2  2  3
  2  3  1  0
  3  4  1  0
  4  5  2  3
  5  6  1  0
  6  7  1  0
  6  8  2  0
  4  9  1  0
  9 10  1  0
 10 11  1  1
 11 12  2  0
 12 13  1  0
 13 14  2  0
 14 15  1  0
 15 16  2  0
 10  2  1  0
 16 11  1  0
M  END
>  <Energy>  (354) 
-2.0347617444709285

>  <Energy_Delta>  (354) 
3.6561864646955655e-12

>  <std_smi>  (354) 
CC(=O)Nc1nc(C)c(-c2ccccn2)s1

>  <enum_smi>  (354) 
C=C1NC(=NC(C)=O)SC1c1ccccn1

>  <enum_code>  (354) 
T

>  <parent_uuid>  (354) 
38ce1dff-635b-49bf-aa41-0dda23e4ce8b

>  <o3da_score>  (354) 
80.948387162435893

>  <o3da_score_rel>  (354) 
0.32226729076070088

>  <o3da_align>  (354) 
0.41786007853957557

>  <RMSD>  (354) 
6.8191881652637071e-05

>  <CONVERGED>  (354) 
0

>  <ENERGY>  (354) 
-2.0347617445583426

$$$$
149f7127-cbfe-4e8b-80c4-cfd72b638fb6
     RDKit          3D

 16 17  0  0  0  0  0  0  0  0999 V2000
   -5.7132   28.4399    3.9716 C   0  0  0  0  0  0  0  0  0  0  0  0
   -4.5846   27.8582    4.4034 C   0  0  0  0  0  0  0  0  0  0  0  0
   -4.4301   26.5089    4.5932 N   0  0  0  0  0  0  0  0  0  0  0  0
   -3.2456   26.0151    5.0461 C   0  0  0  0  0  0  0  0  0  0  0  0
   -2.8413   24.8140    5.2594 N   0  0  0  0  0  0  0  0  0  0  0  0
   -3.7102   23.7882    4.9921 C   0  0  0  0  0  0  0  0  0  0  0  0
   -3.0997   22.4300    5.2119 C   0  0  0  0  0  0  0  0  0  0  0  0
   -4.8745   23.9125    4.6157 O   0  0  0  0  0  0  0  0  0  0  0  0
   -2.1281   27.3358    5.3905 S   0  0  0  0  0  0  0  0  0  0  0  0
   -3.3132   28.6264    4.7695 C   0  0  1  0  0  0  0  0  0  0  0  0
   -2.6765   29.4311    3.6449 C   0  0  0  0  0  0  0  0  0  0  0  0
   -1.9289   30.5695    3.9569 C   0  0  0  0  0  0  0  0  0  0  0  0
   -1.3244   31.2889    2.9290 C   0  0  0  0  0  0  0  0  0  0  0  0
   -1.4706   30.8566    1.6177 C   0  0  0  0  0  0  0  0  0  0  0  0
   -2.2177   29.7157    1.3869 C   0  0  0  0  0  0  0  0  0  0  0  0
   -2.8177   29.0001    2.3627 N   0  0  0  0  0  0  0  0  0  0  0  0
  1  2  2  3
  2  3  1  0
  3  4  1  0
  4  5  2  3
  5  6  1  0
  6  7  1  0
  6  8  2  0
  4  9  1  0
  9 10  1  0
 10 11  1  6
 11 12  2  0
 12 13  1  0
 13 14  2  0
 14 15  1  0
 15 16  2  0
 10  2  1  0
 16 11  1  0
M  END
>  <Energy>  (355) 
0.3119543164347236

>  <Energy_Delta>  (355) 
2.3467160609093085

>  <std_smi>  (355) 
CC(=O)Nc1nc(C)c(-c2ccccn2)s1

>  <enum_smi>  (355) 
C=C1NC(=NC(C)=O)SC1c1ccccn1

>  <enum_code>  (355) 
T

>  <parent_uuid>  (355) 
38ce1dff-635b-49bf-aa41-0dda23e4ce8b

>  <o3da_score>  (355) 
93.74867967335021

>  <o3da_score_rel>  (355) 
0.373227115076399

>  <o3da_align>  (355) 
0.53036572035439211

>  <RMSD>  (355) 
6.7469509181638694e-05

>  <CONVERGED>  (355) 
0

>  <ENERGY>  (355) 
0.31195431628485681

$$$$
149f7127-cbfe-4e8b-80c4-cfd72b638fb6
     RDKit          3D

 16 17  0  0  0  0  0  0  0  0999 V2000
   -1.0578   27.4560    5.6514 C   0  0  0  0  0  0  0  0  0  0  0  0
   -2.3372   27.4467    5.2498 C   0  0  0  0  0  0  0  0  0  0  0  0
   -3.0672   26.3111    5.0088 N   0  0  0  0  0  0  0  0  0  0  0  0
   -4.3660   26.4061    4.6139 C   0  0  0  0  0  0  0  0  0  0  0  0
   -5.2323   25.5140    4.2894 N   0  0  0  0  0  0  0  0  0  0  0  0
   -4.8400   24.2009    4.3129 C   0  0  0  0  0  0  0  0  0  0  0  0
   -5.9164   23.2586    3.8450 C   0  0  0  0  0  0  0  0  0  0  0  0
   -3.7397   23.7862    4.6736 O   0  0  0  0  0  0  0  0  0  0  0  0
   -4.8705   28.0961    4.5845 S   0  0  0  0  0  0  0  0  0  0  0  0
   -3.1723   28.7092    5.0271 C   0  0  2  0  0  0  0  0  0  0  0  0
   -2.6599   29.6642    3.9580 C   0  0  0  0  0  0  0  0  0  0  0  0
   -2.9498   31.0270    4.0626 C   0  0  0  0  0  0  0  0  0  0  0  0
   -2.5035   31.8954    3.0695 C   0  0  0  0  0  0  0  0  0  0  0  0
   -1.7872   31.3888    1.9934 C   0  0  0  0  0  0  0  0  0  0  0  0
   -1.5466   30.0273    1.9533 C   0  0  0  0  0  0  0  0  0  0  0  0
   -1.9638   29.1622    2.9029 N   0  0  0  0  0  0  0  0  0  0  0  0
  1  2  2  3
  2  3  1  0
  3  4  1  0
  4  5  2  3
  5  6  1  0
  6  7  1  0
  6  8  2  0
  4  9  1  0
  9 10  1  0
 10 11  1  6
 11 12  2  0
 12 13  1  0
 13 14  2  0
 14 15  1  0
 15 16  2  0
 10  2  1  0
 16 11  1  0
M  END
>  <Energy>  (356) 
0.31195431644911631

>  <Energy_Delta>  (356) 
2.346716060923701

>  <std_smi>  (356) 
CC(=O)Nc1nc(C)c(-c2ccccn2)s1

>  <enum_smi>  (356) 
C=C1NC(=NC(C)=O)SC1c1ccccn1

>  <enum_code>  (356) 
T

>  <parent_uuid>  (356) 
38ce1dff-635b-49bf-aa41-0dda23e4ce8b

>  <o3da_score>  (356) 
90.262468265223347

>  <o3da_score_rel>  (356) 
0.35934800092849606

>  <o3da_align>  (356) 
0.49673703979695338

>  <RMSD>  (356) 
6.4274925094984003e-05

>  <CONVERGED>  (356) 
0

>  <ENERGY>  (356) 
0.31195431627420689

$$$$
149f7127-cbfe-4e8b-80c4-cfd72b638fb6
     RDKit          3D

 16 17  0  0  0  0  0  0  0  0999 V2000
   -1.1536   27.6204    5.7947 C   0  0  0  0  0  0  0  0  0  0  0  0
   -2.4162   27.5314    5.3524 C   0  0  0  0  0  0  0  0  0  0  0  0
   -3.1449   26.3702    5.2964 N   0  0  0  0  0  0  0  0  0  0  0  0
   -4.4288   26.3913    4.8420 C   0  0  0  0  0  0  0  0  0  0  0  0
   -5.1584   25.3311    4.7365 N   0  0  0  0  0  0  0  0  0  0  0  0
   -6.4150   25.4702    4.2096 C   0  0  0  0  0  0  0  0  0  0  0  0
   -7.5221   25.4098    5.2281 C   0  0  0  0  0  0  0  0  0  0  0  0
   -6.6436   25.5517    3.0075 O   0  0  0  0  0  0  0  0  0  0  0  0
   -4.9101   28.0437    4.4684 S   0  0  0  0  0  0  0  0  0  0  0  0
   -3.2289   28.7298    4.8595 C   0  0  2  0  0  0  0  0  0  0  0  0
   -2.6175   29.4616    3.6772 C   0  0  0  0  0  0  0  0  0  0  0  0
   -2.4034   28.8293    2.4494 C   0  0  0  0  0  0  0  0  0  0  0  0
   -1.8267   29.5489    1.4060 C   0  0  0  0  0  0  0  0  0  0  0  0
   -1.4726   30.8760    1.6073 C   0  0  0  0  0  0  0  0  0  0  0  0
   -1.7078   31.4318    2.8519 C   0  0  0  0  0  0  0  0  0  0  0  0
   -2.2617   30.7588    3.8848 N   0  0  0  0  0  0  0  0  0  0  0  0
  1  2  2  3
  2  3  1  0
  3  4  1  0
  4  5  2  3
  5  6  1  0
  6  7  1  0
  6  8  2  0
  4  9  1  0
  9 10  1  0
 10 11  1  6
 11 12  2  0
 12 13  1  0
 13 14  2  0
 14 15  1  0
 15 16  2  0
 10  2  1  0
 16 11  1  0
M  END
>  <Energy>  (357) 
5.871762961164988

>  <Energy_Delta>  (357) 
7.9065247056395727

>  <std_smi>  (357) 
CC(=O)Nc1nc(C)c(-c2ccccn2)s1

>  <enum_smi>  (357) 
C=C1NC(=NC(C)=O)SC1c1ccccn1

>  <enum_code>  (357) 
T

>  <parent_uuid>  (357) 
38ce1dff-635b-49bf-aa41-0dda23e4ce8b

>  <o3da_score>  (357) 
74.23659251067734

>  <o3da_score_rel>  (357) 
0.2955466610559484

>  <o3da_align>  (357) 
0.43789492597963836

>  <RMSD>  (357) 
5.7536484317481003e-05

>  <CONVERGED>  (357) 
0

>  <ENERGY>  (357) 
5.8717629608588204

$$$$
149f7127-cbfe-4e8b-80c4-cfd72b638fb6
     RDKit          3D

 16 17  0  0  0  0  0  0  0  0999 V2000
   -5.7442   28.6194    4.1367 C   0  0  0  0  0  0  0  0  0  0  0  0
   -4.6629   27.9963    4.6266 C   0  0  0  0  0  0  0  0  0  0  0  0
   -4.6055   26.6625    4.9432 N   0  0  0  0  0  0  0  0  0  0  0  0
   -3.4587   26.1298    5.4495 C   0  0  0  0  0  0  0  0  0  0  0  0
   -3.3292   24.8783    5.7402 N   0  0  0  0  0  0  0  0  0  0  0  0
   -2.1075   24.4491    6.1866 C   0  0  0  0  0  0  0  0  0  0  0  0
   -2.0478   24.1887    7.6682 C   0  0  0  0  0  0  0  0  0  0  0  0
   -1.1586   24.2101    5.4475 O   0  0  0  0  0  0  0  0  0  0  0  0
   -2.2474   27.3912    5.6578 S   0  0  0  0  0  0  0  0  0  0  0  0
   -3.3364   28.7007    4.9165 C   0  0  1  0  0  0  0  0  0  0  0  0
   -2.6978   29.3627    3.7078 C   0  0  0  0  0  0  0  0  0  0  0  0
   -2.3083   28.6278    2.5848 C   0  0  0  0  0  0  0  0  0  0  0  0
   -1.7400   29.2928    1.5012 C   0  0  0  0  0  0  0  0  0  0  0  0
   -1.5763   30.6702    1.5564 C   0  0  0  0  0  0  0  0  0  0  0  0
   -1.9929   31.3309    2.6979 C   0  0  0  0  0  0  0  0  0  0  0  0
   -2.5511   30.7146    3.7635 N   0  0  0  0  0  0  0  0  0  0  0  0
  1  2  2  3
  2  3  1  0
  3  4  1  0
  4  5  2  3
  5  6  1  0
  6  7  1  0
  6  8  2  0
  4  9  1  0
  9 10  1  0
 10 11  1  6
 11 12  2  0
 12 13  1  0
 13 14  2  0
 14 15  1  0
 15 16  2  0
 10  2  1  0
 16 11  1  0
M  END
>  <Energy>  (358) 
5.8717629621441532

>  <Energy_Delta>  (358) 
7.9065247066187379

>  <std_smi>  (358) 
CC(=O)Nc1nc(C)c(-c2ccccn2)s1

>  <enum_smi>  (358) 
C=C1NC(=NC(C)=O)SC1c1ccccn1

>  <enum_code>  (358) 
T

>  <parent_uuid>  (358) 
38ce1dff-635b-49bf-aa41-0dda23e4ce8b

>  <o3da_score>  (358) 
82.716799652802536

>  <o3da_score_rel>  (358) 
0.3293075978278972

>  <o3da_align>  (358) 
0.4704750136267134

>  <RMSD>  (358) 
5.3432364309498258e-05

>  <CONVERGED>  (358) 
0

>  <ENERGY>  (358) 
5.8717629608712887

$$$$
149f7127-cbfe-4e8b-80c4-cfd72b638fb6
     RDKit          3D

 16 17  0  0  0  0  0  0  0  0999 V2000
   -0.0584   27.9069    3.0960 C   0  0  0  0  0  0  0  0  0  0  0  0
   -1.3464   28.2783    3.0659 C   0  0  0  0  0  0  0  0  0  0  0  0
   -2.2804   27.9381    4.0121 N   0  0  0  0  0  0  0  0  0  0  0  0
   -3.5862   28.2851    3.8363 C   0  0  0  0  0  0  0  0  0  0  0  0
   -4.5212   27.9572    4.6646 N   0  0  0  0  0  0  0  0  0  0  0  0
   -5.8059   28.3174    4.3548 C   0  0  0  0  0  0  0  0  0  0  0  0
   -6.3219   29.4962    5.1368 C   0  0  0  0  0  0  0  0  0  0  0  0
   -6.5196   27.6953    3.5756 O   0  0  0  0  0  0  0  0  0  0  0  0
   -3.7653   29.2423    2.3695 S   0  0  0  0  0  0  0  0  0  0  0  0
   -1.9618   29.1145    1.9425 C   0  0  1  0  0  0  0  0  0  0  0  0
   -1.3259   30.4807    1.7507 C   0  0  0  0  0  0  0  0  0  0  0  0
   -1.2721   31.4194    2.7848 C   0  0  0  0  0  0  0  0  0  0  0  0
   -0.6681   32.6526    2.5527 C   0  0  0  0  0  0  0  0  0  0  0  0
   -0.1304   32.9233    1.3017 C   0  0  0  0  0  0  0  0  0  0  0  0
   -0.2157   31.9432    0.3295 C   0  0  0  0  0  0  0  0  0  0  0  0
   -0.7913   30.7364    0.5261 N   0  0  0  0  0  0  0  0  0  0  0  0
  1  2  2  3
  2  3  1  0
  3  4  1  0
  4  5  2  3
  5  6  1  0
  6  7  1  0
  6  8  2  0
  4  9  1  0
  9 10  1  0
 10 11  1  1
 11 12  2  0
 12 13  1  0
 13 14  2  0
 14 15  1  0
 15 16  2  0
 10  2  1  0
 16 11  1  0
M  END
>  <Energy>  (359) 
6.4014694944153678

>  <Energy_Delta>  (359) 
8.4362312388899525

>  <std_smi>  (359) 
CC(=O)Nc1nc(C)c(-c2ccccn2)s1

>  <enum_smi>  (359) 
C=C1NC(=NC(C)=O)SC1c1ccccn1

>  <enum_code>  (359) 
T

>  <parent_uuid>  (359) 
38ce1dff-635b-49bf-aa41-0dda23e4ce8b

>  <o3da_score>  (359) 
75.34688516216309

>  <o3da_score_rel>  (359) 
0.29996689742245958

>  <o3da_align>  (359) 
0.37968243320726736

>  <RMSD>  (359) 
6.3211055983616643e-05

>  <CONVERGED>  (359) 
0

>  <ENERGY>  (359) 
6.4014694939004375

$$$$
149f7127-cbfe-4e8b-80c4-cfd72b638fb6
     RDKit          3D

 16 17  0  0  0  0  0  0  0  0999 V2000
   -1.7625   24.7782    5.5165 C   0  0  0  0  0  0  0  0  0  0  0  0
   -3.0111   24.9304    5.0513 C   0  0  0  0  0  0  0  0  0  0  0  0
   -3.7615   23.9266    4.4923 N   0  0  0  0  0  0  0  0  0  0  0  0
   -5.0310   24.1791    4.0700 C   0  0  0  0  0  0  0  0  0  0  0  0
   -5.7727   23.2952    3.4888 N   0  0  0  0  0  0  0  0  0  0  0  0
   -7.0474   23.6585    3.1455 C   0  0  0  0  0  0  0  0  0  0  0  0
   -7.2293   23.9620    1.6817 C   0  0  0  0  0  0  0  0  0  0  0  0
   -7.9916   23.6596    3.9286 O   0  0  0  0  0  0  0  0  0  0  0  0
   -5.4649   25.8493    4.4220 S   0  0  0  0  0  0  0  0  0  0  0  0
   -3.7841   26.2492    5.1015 C   0  0  2  0  0  0  0  0  0  0  0  0
   -3.1645   27.4020    4.3249 C   0  0  0  0  0  0  0  0  0  0  0  0
   -3.3280   28.7086    4.7907 C   0  0  0  0  0  0  0  0  0  0  0  0
   -2.7834   29.7626    4.0614 C   0  0  0  0  0  0  0  0  0  0  0  0
   -2.0972   29.4941    2.8845 C   0  0  0  0  0  0  0  0  0  0  0  0
   -1.9849   28.1757    2.4812 C   0  0  0  0  0  0  0  0  0  0  0  0
   -2.5004   27.1331    3.1682 N   0  0  0  0  0  0  0  0  0  0  0  0
  1  2  2  3
  2  3  1  0
  3  4  1  0
  4  5  2  3
  5  6  1  0
  6  7  1  0
  6  8  2  0
  4  9  1  0
  9 10  1  0
 10 11  1  6
 11 12  2  0
 12 13  1  0
 13 14  2  0
 14 15  1  0
 15 16  2  0
 10  2  1  0
 16 11  1  0
M  END
>  <Energy>  (360) 
7.61663875852323

>  <Energy_Delta>  (360) 
9.6514005029978147

>  <std_smi>  (360) 
CC(=O)Nc1nc(C)c(-c2ccccn2)s1

>  <enum_smi>  (360) 
C=C1NC(=NC(C)=O)SC1c1ccccn1

>  <enum_code>  (360) 
T

>  <parent_uuid>  (360) 
38ce1dff-635b-49bf-aa41-0dda23e4ce8b

>  <o3da_score>  (360) 
76.487067656253359

>  <o3da_score_rel>  (360) 
0.30450612959525031

>  <o3da_align>  (360) 
0.45366746789131368

>  <RMSD>  (360) 
5.8423741884218608e-05

>  <CONVERGED>  (360) 
0

>  <ENERGY>  (360) 
7.6166387580783663

$$$$
149f7127-cbfe-4e8b-80c4-cfd72b638fb6
     RDKit          3D

 16 17  0  0  0  0  0  0  0  0999 V2000
   -5.6962   28.3213    4.0975 C   0  0  0  0  0  0  0  0  0  0  0  0
   -4.5450   27.8110    4.5589 C   0  0  0  0  0  0  0  0  0  0  0  0
   -4.3423   26.4854    4.8503 N   0  0  0  0  0  0  0  0  0  0  0  0
   -3.1403   26.0706    5.3368 C   0  0  0  0  0  0  0  0  0  0  0  0
   -2.8652   24.8325    5.5828 N   0  0  0  0  0  0  0  0  0  0  0  0
   -1.6339   24.5450    6.1081 C   0  0  0  0  0  0  0  0  0  0  0  0
   -0.6534   23.9855    5.1113 C   0  0  0  0  0  0  0  0  0  0  0  0
   -1.3593   24.6453    7.2994 O   0  0  0  0  0  0  0  0  0  0  0  0
   -2.0652   27.4493    5.5497 S   0  0  0  0  0  0  0  0  0  0  0  0
   -3.2975   28.6475    4.8477 C   0  0  1  0  0  0  0  0  0  0  0  0
   -2.7019   29.3713    3.6489 C   0  0  0  0  0  0  0  0  0  0  0  0
   -2.0695   30.6025    3.8363 C   0  0  0  0  0  0  0  0  0  0  0  0
   -1.5009   31.2475    2.7408 C   0  0  0  0  0  0  0  0  0  0  0  0
   -1.5676   30.6510    1.4887 C   0  0  0  0  0  0  0  0  0  0  0  0
   -2.2012   29.4260    1.3827 C   0  0  0  0  0  0  0  0  0  0  0  0
   -2.7631   28.7778    2.4261 N   0  0  0  0  0  0  0  0  0  0  0  0
  1  2  2  3
  2  3  1  0
  3  4  1  0
  4  5  2  3
  5  6  1  0
  6  7  1  0
  6  8  2  0
  4  9  1  0
  9 10  1  0
 10 11  1  6
 11 12  2  0
 12 13  1  0
 13 14  2  0
 14 15  1  0
 15 16  2  0
 10  2  1  0
 16 11  1  0
M  END
>  <Energy>  (361) 
7.6166387589104012

>  <Energy_Delta>  (361) 
9.6514005033849859

>  <std_smi>  (361) 
CC(=O)Nc1nc(C)c(-c2ccccn2)s1

>  <enum_smi>  (361) 
C=C1NC(=NC(C)=O)SC1c1ccccn1

>  <enum_code>  (361) 
T

>  <parent_uuid>  (361) 
38ce1dff-635b-49bf-aa41-0dda23e4ce8b

>  <o3da_score>  (361) 
83.377602011732705

>  <o3da_score_rel>  (361) 
0.33193834803065764

>  <o3da_align>  (361) 
0.44298842077433959

>  <RMSD>  (361) 
6.9180017400741301e-05

>  <CONVERGED>  (361) 
0

>  <ENERGY>  (361) 
7.6166387580793407

$$$$
149f7127-cbfe-4e8b-80c4-cfd72b638fb6
     RDKit          3D

 16 17  0  0  0  0  0  0  0  0999 V2000
   -5.7198   28.2846    4.3017 C   0  0  0  0  0  0  0  0  0  0  0  0
   -4.6267   27.5121    4.2179 C   0  0  0  0  0  0  0  0  0  0  0  0
   -4.2669   26.5701    5.1496 N   0  0  0  0  0  0  0  0  0  0  0  0
   -3.1311   25.8398    4.9752 C   0  0  0  0  0  0  0  0  0  0  0  0
   -2.7008   24.9822    5.8403 N   0  0  0  0  0  0  0  0  0  0  0  0
   -1.5281   24.3300    5.5677 C   0  0  0  0  0  0  0  0  0  0  0  0
   -1.7088   22.9072    5.1084 C   0  0  0  0  0  0  0  0  0  0  0  0
   -0.4155   24.8103    5.7561 O   0  0  0  0  0  0  0  0  0  0  0  0
   -2.4126   26.2079    3.4102 S   0  0  0  0  0  0  0  0  0  0  0  0
   -3.6338   27.5639    3.0549 C   0  0  2  0  0  0  0  0  0  0  0  0
   -2.9105   28.8887    2.8551 C   0  0  0  0  0  0  0  0  0  0  0  0
   -2.3913   29.2017    1.5962 C   0  0  0  0  0  0  0  0  0  0  0  0
   -1.7035   30.4002    1.4229 C   0  0  0  0  0  0  0  0  0  0  0  0
   -1.5416   31.2549    2.5050 C   0  0  0  0  0  0  0  0  0  0  0  0
   -2.0772   30.8745    3.7221 C   0  0  0  0  0  0  0  0  0  0  0  0
   -2.7541   29.7220    3.9180 N   0  0  0  0  0  0  0  0  0  0  0  0
  1  2  2  3
  2  3  1  0
  3  4  1  0
  4  5  2  3
  5  6  1  0
  6  7  1  0
  6  8  2  0
  4  9  1  0
  9 10  1  0
 10 11  1  1
 11 12  2  0
 12 13  1  0
 13 14  2  0
 14 15  1  0
 15 16  2  0
 10  2  1  0
 16 11  1  0
M  END
>  <Energy>  (362) 
8.6950536722083935

>  <Energy_Delta>  (362) 
10.729815416682978

>  <std_smi>  (362) 
CC(=O)Nc1nc(C)c(-c2ccccn2)s1

>  <enum_smi>  (362) 
C=C1NC(=NC(C)=O)SC1c1ccccn1

>  <enum_code>  (362) 
T

>  <parent_uuid>  (362) 
38ce1dff-635b-49bf-aa41-0dda23e4ce8b

>  <o3da_score>  (362) 
78.108042190385802

>  <o3da_score_rel>  (362) 
0.31095946473655089

>  <o3da_align>  (362) 
0.5010584182426433

>  <RMSD>  (362) 
5.8598611302177549e-05

>  <CONVERGED>  (362) 
0

>  <ENERGY>  (362) 
8.6950536721000642

$$$$
baf9b64b-2fe3-4e2e-a48a-263f2204bfb3
     RDKit          3D

 16 17  0  0  0  0  0  0  0  0999 V2000
   -2.8584   30.7023    4.5151 C   0  0  0  0  0  0  0  0  0  0  0  0
   -2.2061   30.1562    3.4797 C   0  0  0  0  0  0  0  0  0  0  0  0
   -1.4005   30.8968    2.6432 N   0  0  0  0  0  0  0  0  0  0  0  0
   -1.1189   30.4062    1.4000 C   0  0  0  0  0  0  0  0  0  0  0  0
   -0.5133   30.9129    0.3863 N   0  0  0  0  0  0  0  0  0  0  0  0
   -0.0327   32.1908    0.5100 C   0  0  0  0  0  0  0  0  0  0  0  0
    0.8234   32.6139   -0.6532 C   0  0  0  0  0  0  0  0  0  0  0  0
   -0.2646   32.9531    1.4468 O   0  0  0  0  0  0  0  0  0  0  0  0
   -1.7921   28.7732    1.2631 S   0  0  0  0  0  0  0  0  0  0  0  0
   -2.3454   28.7828    2.9665 C   0  0  0  0  0  0  0  0  0  0  0  0
   -2.6826   27.6124    3.5651 C   0  0  0  0  0  0  0  0  0  0  0  0
   -2.9357   27.4637    5.0100 C   0  0  0  0  0  0  0  0  0  0  0  0
   -3.3203   26.2870    5.5440 C   0  0  0  0  0  0  0  0  0  0  0  0
   -3.4930   25.1159    4.7074 C   0  0  0  0  0  0  0  0  0  0  0  0
   -3.2063   25.2254    3.4025 C   0  0  0  0  0  0  0  0  0  0  0  0
   -2.7845   26.4108    2.8545 N   0  0  0  0  0  0  0  0  0  0  0  0
  1  2  2  3
  2  3  1  0
  3  4  1  0
  4  5  2  3
  5  6  1  0
  6  7  1  0
  6  8  2  0
  4  9  1  0
  9 10  1  0
 10 11  2  3
 11 12  1  0
 12 13  2  0
 13 14  1  0
 14 15  2  0
 15 16  1  0
 10  2  1  0
 16 11  1  0
M  END
>  <Energy>  (363) 
-15.298074904413436

>  <Energy_Delta>  (363) 
0

>  <std_smi>  (363) 
CC(=O)Nc1nc(C)c(-c2ccccn2)s1

>  <enum_smi>  (363) 
C=c1[nH]c(=NC(C)=O)sc1=C1C=CC=CN1

>  <enum_code>  (363) 
T

>  <parent_uuid>  (363) 
38ce1dff-635b-49bf-aa41-0dda23e4ce8b

>  <o3da_score>  (363) 
83.850586292720777

>  <o3da_score_rel>  (363) 
0.33382136717593786

>  <o3da_align>  (363) 
0.35721646783797151

>  <RMSD>  (363) 
6.2324458958216831e-05

>  <CONVERGED>  (363) 
0

>  <ENERGY>  (363) 
-15.298074904491102

$$$$
baf9b64b-2fe3-4e2e-a48a-263f2204bfb3
     RDKit          3D

 16 17  0  0  0  0  0  0  0  0999 V2000
   -2.4139   30.7067    4.8454 C   0  0  0  0  0  0  0  0  0  0  0  0
   -2.2628   30.2708    3.5873 C   0  0  0  0  0  0  0  0  0  0  0  0
   -1.6478   31.0272    2.6143 N   0  0  0  0  0  0  0  0  0  0  0  0
   -1.1480   30.3960    1.5110 C   0  0  0  0  0  0  0  0  0  0  0  0
   -0.4372   30.8109    0.5243 N   0  0  0  0  0  0  0  0  0  0  0  0
   -0.0752   32.1330    0.5168 C   0  0  0  0  0  0  0  0  0  0  0  0
    0.5829   32.5569   -0.7686 C   0  0  0  0  0  0  0  0  0  0  0  0
   -0.2362   32.9225    1.4460 O   0  0  0  0  0  0  0  0  0  0  0  0
   -1.5984   28.6840    1.5778 S   0  0  0  0  0  0  0  0  0  0  0  0
   -2.5544   28.9216    3.0736 C   0  0  0  0  0  0  0  0  0  0  0  0
   -3.4420   27.9690    3.4566 C   0  0  0  0  0  0  0  0  0  0  0  0
   -4.4353   28.1465    4.5317 C   0  0  0  0  0  0  0  0  0  0  0  0
   -5.2580   27.1468    4.9075 C   0  0  0  0  0  0  0  0  0  0  0  0
   -5.1968   25.8534    4.2558 C   0  0  0  0  0  0  0  0  0  0  0  0
   -4.3397   25.7009    3.2366 C   0  0  0  0  0  0  0  0  0  0  0  0
   -3.5195   26.7219    2.8260 N   0  0  0  0  0  0  0  0  0  0  0  0
  1  2  2  3
  2  3  1  0
  3  4  1  0
  4  5  2  3
  5  6  1  0
  6  7  1  0
  6  8  2  0
  4  9  1  0
  9 10  1  0
 10 11  2  3
 11 12  1  0
 12 13  2  0
 13 14  1  0
 14 15  2  0
 15 16  1  0
 10  2  1  0
 16 11  1  0
M  END
>  <Energy>  (364) 
-15.298074903681989

>  <Energy_Delta>  (364) 
7.3144690304616233e-10

>  <std_smi>  (364) 
CC(=O)Nc1nc(C)c(-c2ccccn2)s1

>  <enum_smi>  (364) 
C=c1[nH]c(=NC(C)=O)sc1=C1C=CC=CN1

>  <enum_code>  (364) 
T

>  <parent_uuid>  (364) 
38ce1dff-635b-49bf-aa41-0dda23e4ce8b

>  <o3da_score>  (364) 
92.102134034205235

>  <o3da_score_rel>  (364) 
0.36667197765066739

>  <o3da_align>  (364) 
0.35225041991435202

>  <RMSD>  (364) 
6.2629252550794472e-05

>  <CONVERGED>  (364) 
0

>  <ENERGY>  (364) 
-15.298074904483382

$$$$
baf9b64b-2fe3-4e2e-a48a-263f2204bfb3
     RDKit          3D

 16 17  0  0  0  0  0  0  0  0999 V2000
   -2.4751   30.6257    4.8428 C   0  0  0  0  0  0  0  0  0  0  0  0
   -2.2813   30.1986    3.5867 C   0  0  0  0  0  0  0  0  0  0  0  0
   -1.6771   30.9741    2.6237 N   0  0  0  0  0  0  0  0  0  0  0  0
   -1.1466   30.3572    1.5273 C   0  0  0  0  0  0  0  0  0  0  0  0
   -0.4354   30.7920    0.5495 N   0  0  0  0  0  0  0  0  0  0  0  0
   -0.1099   32.1236    0.5461 C   0  0  0  0  0  0  0  0  0  0  0  0
    0.5639   32.5625   -0.7261 C   0  0  0  0  0  0  0  0  0  0  0  0
   -0.3131   32.9107    1.4690 O   0  0  0  0  0  0  0  0  0  0  0  0
   -1.5517   28.6348    1.5906 S   0  0  0  0  0  0  0  0  0  0  0  0
   -2.5234   28.8350    3.0721 C   0  0  0  0  0  0  0  0  0  0  0  0
   -3.4095   27.9031    3.5132 C   0  0  0  0  0  0  0  0  0  0  0  0
   -3.4857   26.5459    2.9223 C   0  0  0  0  0  0  0  0  0  0  0  0
   -4.3991   25.6422    3.3268 C   0  0  0  0  0  0  0  0  0  0  0  0
   -5.3630   25.9780    4.3527 C   0  0  0  0  0  0  0  0  0  0  0  0
   -5.3011   27.1995    4.8994 C   0  0  0  0  0  0  0  0  0  0  0  0
   -4.3457   28.1201    4.5318 N   0  0  0  0  0  0  0  0  0  0  0  0
  1  2  2  3
  2  3  1  0
  3  4  1  0
  4  5  2  3
  5  6  1  0
  6  7  1  0
  6  8  2  0
  4  9  1  0
  9 10  1  0
 10 11  2  3
 11 12  1  0
 12 13  2  0
 13 14  1  0
 14 15  2  0
 15 16  1  0
 10  2  1  0
 16 11  1  0
M  END
>  <Energy>  (365) 
-13.546542073302367

>  <Energy_Delta>  (365) 
1.7515328311110689

>  <std_smi>  (365) 
CC(=O)Nc1nc(C)c(-c2ccccn2)s1

>  <enum_smi>  (365) 
C=c1[nH]c(=NC(C)=O)sc1=C1C=CC=CN1

>  <enum_code>  (365) 
T

>  <parent_uuid>  (365) 
38ce1dff-635b-49bf-aa41-0dda23e4ce8b

>  <o3da_score>  (365) 
93.871991093193017

>  <o3da_score_rel>  (365) 
0.37371803575543433

>  <o3da_align>  (365) 
0.38600717689175873

>  <RMSD>  (365) 
7.1000716603791393e-05

>  <CONVERGED>  (365) 
0

>  <ENERGY>  (365) 
-13.546542073369123

$$$$
baf9b64b-2fe3-4e2e-a48a-263f2204bfb3
     RDKit          3D

 16 17  0  0  0  0  0  0  0  0999 V2000
   -3.6783   30.9786    4.0546 C   0  0  0  0  0  0  0  0  0  0  0  0
   -2.9090   30.3447    3.1580 C   0  0  0  0  0  0  0  0  0  0  0  0
   -1.8792   30.9678    2.4908 N   0  0  0  0  0  0  0  0  0  0  0  0
   -1.4237   30.4128    1.3295 C   0  0  0  0  0  0  0  0  0  0  0  0
   -0.5813   30.8193    0.4486 N   0  0  0  0  0  0  0  0  0  0  0  0
    0.0102   32.0389    0.6530 C   0  0  0  0  0  0  0  0  0  0  0  0
    1.1068   32.3352   -0.3342 C   0  0  0  0  0  0  0  0  0  0  0  0
   -0.3006   32.8454    1.5280 O   0  0  0  0  0  0  0  0  0  0  0  0
   -2.2414   28.8623    1.0797 S   0  0  0  0  0  0  0  0  0  0  0  0
   -3.1112   28.9790    2.6318 C   0  0  0  0  0  0  0  0  0  0  0  0
   -3.7173   27.9179    3.2274 C   0  0  0  0  0  0  0  0  0  0  0  0
   -3.8962   26.6205    2.5333 C   0  0  0  0  0  0  0  0  0  0  0  0
   -4.4510   25.5555    3.1438 C   0  0  0  0  0  0  0  0  0  0  0  0
   -4.8788   25.6381    4.5238 C   0  0  0  0  0  0  0  0  0  0  0  0
   -4.7284   26.8071    5.1609 C   0  0  0  0  0  0  0  0  0  0  0  0
   -4.2063   27.9191    4.5396 N   0  0  0  0  0  0  0  0  0  0  0  0
  1  2  2  3
  2  3  1  0
  3  4  1  0
  4  5  2  3
  5  6  1  0
  6  7  1  0
  6  8  2  0
  4  9  1  0
  9 10  1  0
 10 11  2  3
 11 12  1  0
 12 13  2  0
 13 14  1  0
 14 15  2  0
 15 16  1  0
 10  2  1  0
 16 11  1  0
M  END
>  <Energy>  (366) 
-13.546542072506202

>  <Energy_Delta>  (366) 
1.7515328319072339

>  <std_smi>  (366) 
CC(=O)Nc1nc(C)c(-c2ccccn2)s1

>  <enum_smi>  (366) 
C=c1[nH]c(=NC(C)=O)sc1=C1C=CC=CN1

>  <enum_code>  (366) 
T

>  <parent_uuid>  (366) 
38ce1dff-635b-49bf-aa41-0dda23e4ce8b

>  <o3da_score>  (366) 
95.131879024699884

>  <o3da_score_rel>  (366) 
0.37873383266728727

>  <o3da_align>  (366) 
0.51737617004121261

>  <RMSD>  (366) 
6.8135174604327467e-05

>  <CONVERGED>  (366) 
0

>  <ENERGY>  (366) 
-13.546542073376521

$$$$
baf9b64b-2fe3-4e2e-a48a-263f2204bfb3
     RDKit          3D

 16 17  0  0  0  0  0  0  0  0999 V2000
   -1.7710   27.0957    3.0969 C   0  0  0  0  0  0  0  0  0  0  0  0
   -1.9614   28.3614    2.6997 C   0  0  0  0  0  0  0  0  0  0  0  0
   -1.3459   28.8871    1.5832 N   0  0  0  0  0  0  0  0  0  0  0  0
   -1.2247   30.2448    1.4831 C   0  0  0  0  0  0  0  0  0  0  0  0
   -0.5703   30.8400    0.5423 N   0  0  0  0  0  0  0  0  0  0  0  0
   -0.4883   32.2059    0.5912 C   0  0  0  0  0  0  0  0  0  0  0  0
   -1.3077   32.9058   -0.4598 C   0  0  0  0  0  0  0  0  0  0  0  0
    0.2362   32.8224    1.3648 O   0  0  0  0  0  0  0  0  0  0  0  0
   -2.0936   30.9957    2.8290 S   0  0  0  0  0  0  0  0  0  0  0  0
   -2.6834   29.4174    3.4277 C   0  0  0  0  0  0  0  0  0  0  0  0
   -3.7140   29.3794    4.3096 C   0  0  0  0  0  0  0  0  0  0  0  0
   -4.4293   28.1485    4.6936 C   0  0  0  0  0  0  0  0  0  0  0  0
   -5.4083   28.1589    5.6204 C   0  0  0  0  0  0  0  0  0  0  0  0
   -5.7963   29.3937    6.2729 C   0  0  0  0  0  0  0  0  0  0  0  0
   -5.1954   30.5275    5.8854 C   0  0  0  0  0  0  0  0  0  0  0  0
   -4.2236   30.5336    4.9158 N   0  0  0  0  0  0  0  0  0  0  0  0
  1  2  2  3
  2  3  1  0
  3  4  1  0
  4  5  2  3
  5  6  1  0
  6  7  1  0
  6  8  2  0
  4  9  1  0
  9 10  1  0
 10 11  2  3
 11 12  1  0
 12 13  2  0
 13 14  1  0
 14 15  2  0
 15 16  1  0
 10  2  1  0
 16 11  1  0
M  END
>  <Energy>  (367) 
-7.6502563088495137

>  <Energy_Delta>  (367) 
7.6478185955639226

>  <std_smi>  (367) 
CC(=O)Nc1nc(C)c(-c2ccccn2)s1

>  <enum_smi>  (367) 
C=c1[nH]c(=NC(C)=O)sc1=C1C=CC=CN1

>  <enum_code>  (367) 
T

>  <parent_uuid>  (367) 
38ce1dff-635b-49bf-aa41-0dda23e4ce8b

>  <o3da_score>  (367) 
79.302885874753798

>  <o3da_score_rel>  (367) 
0.31571631104988296

>  <o3da_align>  (367) 
0.49221740468854874

>  <RMSD>  (367) 
6.674187347991034e-05

>  <CONVERGED>  (367) 
0

>  <ENERGY>  (367) 
-7.6502563091310005

$$$$
baf9b64b-2fe3-4e2e-a48a-263f2204bfb3
     RDKit          3D

 16 17  0  0  0  0  0  0  0  0999 V2000
   -4.6959   30.2302    5.0916 C   0  0  0  0  0  0  0  0  0  0  0  0
   -4.2310   29.0563    4.6423 C   0  0  0  0  0  0  0  0  0  0  0  0
   -4.6233   27.8495    5.1822 N   0  0  0  0  0  0  0  0  0  0  0  0
   -4.4743   26.7185    4.4294 C   0  0  0  0  0  0  0  0  0  0  0  0
   -4.9087   25.5558    4.7862 N   0  0  0  0  0  0  0  0  0  0  0  0
   -4.7345   24.5166    3.9120 C   0  0  0  0  0  0  0  0  0  0  0  0
   -3.6983   23.5163    4.3499 C   0  0  0  0  0  0  0  0  0  0  0  0
   -5.4009   24.3561    2.8954 O   0  0  0  0  0  0  0  0  0  0  0  0
   -3.6147   27.1339    2.9399 S   0  0  0  0  0  0  0  0  0  0  0  0
   -3.3964   28.8336    3.4506 C   0  0  0  0  0  0  0  0  0  0  0  0
   -2.4830   29.6107    2.8155 C   0  0  0  0  0  0  0  0  0  0  0  0
   -2.0553   30.9399    3.2894 C   0  0  0  0  0  0  0  0  0  0  0  0
   -1.1876   31.6959    2.5874 C   0  0  0  0  0  0  0  0  0  0  0  0
   -0.6380   31.2199    1.3334 C   0  0  0  0  0  0  0  0  0  0  0  0
   -0.9721   29.9874    0.9259 C   0  0  0  0  0  0  0  0  0  0  0  0
   -1.8255   29.1945    1.6521 N   0  0  0  0  0  0  0  0  0  0  0  0
  1  2  2  3
  2  3  1  0
  3  4  1  0
  4  5  2  3
  5  6  1  0
  6  7  1  0
  6  8  2  0
  4  9  1  0
  9 10  1  0
 10 11  2  3
 11 12  1  0
 12 13  2  0
 13 14  1  0
 14 15  2  0
 15 16  1  0
 10  2  1  0
 16 11  1  0
M  END
>  <Energy>  (368) 
-7.6502563086513202

>  <Energy_Delta>  (368) 
7.6478185957621161

>  <std_smi>  (368) 
CC(=O)Nc1nc(C)c(-c2ccccn2)s1

>  <enum_smi>  (368) 
C=c1[nH]c(=NC(C)=O)sc1=C1C=CC=CN1

>  <enum_code>  (368) 
T

>  <parent_uuid>  (368) 
38ce1dff-635b-49bf-aa41-0dda23e4ce8b

>  <o3da_score>  (368) 
71.507379998740632

>  <o3da_score_rel>  (368) 
0.2846812695025982

>  <o3da_align>  (368) 
0.5600385899882292

>  <RMSD>  (368) 
6.5516106760226027e-05

>  <CONVERGED>  (368) 
0

>  <ENERGY>  (368) 
-7.6502563091194302

$$$$
baf9b64b-2fe3-4e2e-a48a-263f2204bfb3
     RDKit          3D

 16 17  0  0  0  0  0  0  0  0999 V2000
   -2.5515   32.1951    5.2355 C   0  0  0  0  0  0  0  0  0  0  0  0
   -2.8356   31.0329    4.6299 C   0  0  0  0  0  0  0  0  0  0  0  0
   -3.7847   30.1557    5.1078 N   0  0  0  0  0  0  0  0  0  0  0  0
   -3.7181   28.8494    4.7126 C   0  0  0  0  0  0  0  0  0  0  0  0
   -4.4783   27.9172    5.1824 N   0  0  0  0  0  0  0  0  0  0  0  0
   -4.2671   26.6408    4.7337 C   0  0  0  0  0  0  0  0  0  0  0  0
   -5.3267   26.1397    3.7890 C   0  0  0  0  0  0  0  0  0  0  0  0
   -3.3461   25.9257    5.1126 O   0  0  0  0  0  0  0  0  0  0  0  0
   -2.4480   28.6885    3.4930 S   0  0  0  0  0  0  0  0  0  0  0  0
   -2.1096   30.4366    3.4909 C   0  0  0  0  0  0  0  0  0  0  0  0
   -1.4106   31.0597    2.5057 C   0  0  0  0  0  0  0  0  0  0  0  0
   -0.6785   30.3051    1.4610 C   0  0  0  0  0  0  0  0  0  0  0  0
   -0.0304   30.9249    0.4558 C   0  0  0  0  0  0  0  0  0  0  0  0
   -0.0438   32.3681    0.3503 C   0  0  0  0  0  0  0  0  0  0  0  0
   -0.6954   33.0626    1.2928 C   0  0  0  0  0  0  0  0  0  0  0  0
   -1.3251   32.4489    2.3520 N   0  0  0  0  0  0  0  0  0  0  0  0
  1  2  2  3
  2  3  1  0
  3  4  1  0
  4  5  2  3
  5  6  1  0
  6  7  1  0
  6  8  2  0
  4  9  1  0
  9 10  1  0
 10 11  2  3
 11 12  1  0
 12 13  2  0
 13 14  1  0
 14 15  2  0
 15 16  1  0
 10  2  1  0
 16 11  1  0
M  END
>  <Energy>  (369) 
-5.8095523416852934

>  <Energy_Delta>  (369) 
9.4885225627281429

>  <std_smi>  (369) 
CC(=O)Nc1nc(C)c(-c2ccccn2)s1

>  <enum_smi>  (369) 
C=c1[nH]c(=NC(C)=O)sc1=C1C=CC=CN1

>  <enum_code>  (369) 
T

>  <parent_uuid>  (369) 
38ce1dff-635b-49bf-aa41-0dda23e4ce8b

>  <o3da_score>  (369) 
89.542249776091765

>  <o3da_score_rel>  (369) 
0.35648070647848495

>  <o3da_align>  (369) 
0.47962900215550797

>  <RMSD>  (369) 
6.2398291789839139e-05

>  <CONVERGED>  (369) 
0

>  <ENERGY>  (369) 
-5.8095523417328501

$$$$
baf9b64b-2fe3-4e2e-a48a-263f2204bfb3
     RDKit          3D

 16 17  0  0  0  0  0  0  0  0999 V2000
   -1.7470   24.4585    5.7435 C   0  0  0  0  0  0  0  0  0  0  0  0
   -2.8025   24.7493    4.9694 C   0  0  0  0  0  0  0  0  0  0  0  0
   -3.6234   23.7809    4.4337 N   0  0  0  0  0  0  0  0  0  0  0  0
   -4.8799   24.1424    4.0370 C   0  0  0  0  0  0  0  0  0  0  0  0
   -5.7738   23.3040    3.6301 N   0  0  0  0  0  0  0  0  0  0  0  0
   -7.0100   23.7998    3.3122 C   0  0  0  0  0  0  0  0  0  0  0  0
   -7.2959   23.8334    1.8346 C   0  0  0  0  0  0  0  0  0  0  0  0
   -7.8524   24.1224    4.1427 O   0  0  0  0  0  0  0  0  0  0  0  0
   -5.0397   25.8973    4.1843 S   0  0  0  0  0  0  0  0  0  0  0  0
   -3.3455   26.0946    4.6952 C   0  0  0  0  0  0  0  0  0  0  0  0
   -2.6960   27.2885    4.6793 C   0  0  0  0  0  0  0  0  0  0  0  0
   -3.4062   28.5686    4.4470 C   0  0  0  0  0  0  0  0  0  0  0  0
   -2.7527   29.7446    4.3795 C   0  0  0  0  0  0  0  0  0  0  0  0
   -1.3128   29.7956    4.5145 C   0  0  0  0  0  0  0  0  0  0  0  0
   -0.6595   28.6464    4.7328 C   0  0  0  0  0  0  0  0  0  0  0  0
   -1.3146   27.4413    4.8497 N   0  0  0  0  0  0  0  0  0  0  0  0
  1  2  2  3
  2  3  1  0
  3  4  1  0
  4  5  2  3
  5  6  1  0
  6  7  1  0
  6  8  2  0
  4  9  1  0
  9 10  1  0
 10 11  2  3
 11 12  1  0
 12 13  2  0
 13 14  1  0
 14 15  2  0
 15 16  1  0
 10  2  1  0
 16 11  1  0
M  END
>  <Energy>  (370) 
-5.8095523414917682

>  <Energy_Delta>  (370) 
9.4885225629216681

>  <std_smi>  (370) 
CC(=O)Nc1nc(C)c(-c2ccccn2)s1

>  <enum_smi>  (370) 
C=c1[nH]c(=NC(C)=O)sc1=C1C=CC=CN1

>  <enum_code>  (370) 
T

>  <parent_uuid>  (370) 
38ce1dff-635b-49bf-aa41-0dda23e4ce8b

>  <o3da_score>  (370) 
69.78707859790687

>  <o3da_score_rel>  (370) 
0.2778324996731753

>  <o3da_align>  (370) 
0.4719508299939249

>  <RMSD>  (370) 
6.1752713282058839e-05

>  <CONVERGED>  (370) 
0

>  <ENERGY>  (370) 
-5.8095523417413286

$$$$
baf9b64b-2fe3-4e2e-a48a-263f2204bfb3
     RDKit          3D

 16 17  0  0  0  0  0  0  0  0999 V2000
   -4.7167   30.2135    4.9925 C   0  0  0  0  0  0  0  0  0  0  0  0
   -4.2609   29.0128    4.6070 C   0  0  0  0  0  0  0  0  0  0  0  0
   -4.6833   27.8368    5.1860 N   0  0  0  0  0  0  0  0  0  0  0  0
   -4.4851   26.6662    4.5114 C   0  0  0  0  0  0  0  0  0  0  0  0
   -4.9478   25.5247    4.8994 N   0  0  0  0  0  0  0  0  0  0  0  0
   -4.6463   24.4264    4.1389 C   0  0  0  0  0  0  0  0  0  0  0  0
   -5.8185   23.8714    3.3747 C   0  0  0  0  0  0  0  0  0  0  0  0
   -3.5476   23.8824    4.1237 O   0  0  0  0  0  0  0  0  0  0  0  0
   -3.5832   27.0129    3.0304 S   0  0  0  0  0  0  0  0  0  0  0  0
   -3.3860   28.7325    3.4506 C   0  0  0  0  0  0  0  0  0  0  0  0
   -2.4767   29.5465    2.8515 C   0  0  0  0  0  0  0  0  0  0  0  0
   -1.7180   29.1295    1.6484 C   0  0  0  0  0  0  0  0  0  0  0  0
   -0.7827   29.9190    1.0857 C   0  0  0  0  0  0  0  0  0  0  0  0
   -0.4683   31.2104    1.6578 C   0  0  0  0  0  0  0  0  0  0  0  0
   -1.1494   31.6009    2.7433 C   0  0  0  0  0  0  0  0  0  0  0  0
   -2.1416   30.8287    3.3047 N   0  0  0  0  0  0  0  0  0  0  0  0
  1  2  2  3
  2  3  1  0
  3  4  1  0
  4  5  2  3
  5  6  1  0
  6  7  1  0
  6  8  2  0
  4  9  1  0
  9 10  1  0
 10 11  2  3
 11 12  1  0
 12 13  2  0
 13 14  1  0
 14 15  2  0
 15 16  1  0
 10  2  1  0
 16 11  1  0
M  END
>  <Energy>  (371) 
-5.5934869894557711

>  <Energy_Delta>  (371) 
9.7045879149576653

>  <std_smi>  (371) 
CC(=O)Nc1nc(C)c(-c2ccccn2)s1

>  <enum_smi>  (371) 
C=c1[nH]c(=NC(C)=O)sc1=C1C=CC=CN1

>  <enum_code>  (371) 
T

>  <parent_uuid>  (371) 
38ce1dff-635b-49bf-aa41-0dda23e4ce8b

>  <o3da_score>  (371) 
75.99390829695804

>  <o3da_score_rel>  (371) 
0.30254279053187322

>  <o3da_align>  (371) 
0.5797647698434969

>  <RMSD>  (371) 
5.4837309786079639e-05

>  <CONVERGED>  (371) 
0

>  <ENERGY>  (371) 
-5.5934869895006436

$$$$
f28c9abe-0817-4e28-8cb4-3fa9c2b69f13
     RDKit          3D

 16 17  0  0  0  0  0  0  0  0999 V2000
   -1.8161   28.8219    1.0954 C   0  0  0  0  0  0  0  0  0  0  0  0
   -1.3192   30.0563    1.2574 C   0  0  0  0  0  0  0  0  0  0  0  0
   -0.5265   30.6486    0.2999 N   0  0  0  0  0  0  0  0  0  0  0  0
   -0.0436   31.9036    0.5061 C   0  0  0  0  0  0  0  0  0  0  0  0
    0.7006   32.6741   -0.2036 N   0  0  0  0  0  0  0  0  0  0  0  0
    1.1282   32.2033   -1.4180 C   0  0  0  0  0  0  0  0  0  0  0  0
    1.9910   33.1888   -2.1594 C   0  0  0  0  0  0  0  0  0  0  0  0
    0.8618   31.1010   -1.8939 O   0  0  0  0  0  0  0  0  0  0  0  0
   -0.6126   32.4776    2.0758 S   0  0  0  0  0  0  0  0  0  0  0  0
   -1.5083   30.9658    2.4139 C   0  0  0  0  0  0  0  0  0  0  0  0
   -2.2152   30.7682    3.5598 C   0  0  0  0  0  0  0  0  0  0  0  0
   -2.3039   31.7786    4.6178 C   0  0  0  0  0  0  0  0  0  0  0  0
   -2.9947   31.6003    5.7505 C   0  0  0  0  0  0  0  0  0  0  0  0
   -3.7314   30.3415    6.0150 C   0  0  0  0  0  0  0  0  0  0  0  0
   -3.5681   29.3854    4.8655 C   0  0  0  0  0  0  0  0  0  0  0  0
   -2.8921   29.5816    3.7762 N   0  0  0  0  0  0  0  0  0  0  0  0
  1  2  2  3
  2  3  1  0
  3  4  1  0
  4  5  2  3
  5  6  1  0
  6  7  1  0
  6  8  2  0
  4  9  1  0
  9 10  1  0
 10 11  2  3
 11 12  1  0
 12 13  2  0
 13 14  1  0
 14 15  1  0
 15 16  2  0
 10  2  1  0
 16 11  1  0
M  END
>  <Energy>  (372) 
-6.0874263133879465

>  <Energy_Delta>  (372) 
0

>  <std_smi>  (372) 
CC(=O)Nc1nc(C)c(-c2ccccn2)s1

>  <enum_smi>  (372) 
C=c1[nH]c(=NC(C)=O)sc1=C1C=CCC=N1

>  <enum_code>  (372) 
T

>  <parent_uuid>  (372) 
38ce1dff-635b-49bf-aa41-0dda23e4ce8b

>  <o3da_score>  (372) 
80.07673476566643

>  <o3da_score_rel>  (372) 
0.31879711592166071

>  <o3da_align>  (372) 
0.37901269150613953

>  <RMSD>  (372) 
7.8714968987263128e-05

>  <CONVERGED>  (372) 
0

>  <ENERGY>  (372) 
-6.0874263134869881

$$$$
f28c9abe-0817-4e28-8cb4-3fa9c2b69f13
     RDKit          3D

 16 17  0  0  0  0  0  0  0  0999 V2000
   -3.1664   31.4532    4.4037 C   0  0  0  0  0  0  0  0  0  0  0  0
   -2.5038   30.7190    3.4986 C   0  0  0  0  0  0  0  0  0  0  0  0
   -1.5724   31.2678    2.6456 N   0  0  0  0  0  0  0  0  0  0  0  0
   -1.2653   30.5981    1.4951 C   0  0  0  0  0  0  0  0  0  0  0  0
   -0.5474   30.9172    0.4778 N   0  0  0  0  0  0  0  0  0  0  0  0
    0.0519   32.1494    0.4853 C   0  0  0  0  0  0  0  0  0  0  0  0
    1.0195   32.3408   -0.6516 C   0  0  0  0  0  0  0  0  0  0  0  0
   -0.1600   33.0425    1.3042 O   0  0  0  0  0  0  0  0  0  0  0  0
   -2.0921   29.0345    1.5045 S   0  0  0  0  0  0  0  0  0  0  0  0
   -2.7490   29.3068    3.1483 C   0  0  0  0  0  0  0  0  0  0  0  0
   -3.2483   28.2717    3.8725 C   0  0  0  0  0  0  0  0  0  0  0  0
   -3.5677   28.3648    5.2937 C   0  0  0  0  0  0  0  0  0  0  0  0
   -4.2445   27.4139    5.9500 C   0  0  0  0  0  0  0  0  0  0  0  0
   -4.6959   26.1796    5.2579 C   0  0  0  0  0  0  0  0  0  0  0  0
   -4.0640   26.0903    3.8941 C   0  0  0  0  0  0  0  0  0  0  0  0
   -3.4108   27.0284    3.2821 N   0  0  0  0  0  0  0  0  0  0  0  0
  1  2  2  3
  2  3  1  0
  3  4  1  0
  4  5  2  3
  5  6  1  0
  6  7  1  0
  6  8  2  0
  4  9  1  0
  9 10  1  0
 10 11  2  3
 11 12  1  0
 12 13  2  0
 13 14  1  0
 14 15  1  0
 15 16  2  0
 10  2  1  0
 16 11  1  0
M  END
>  <Energy>  (373) 
-1.0636829855424237

>  <Energy_Delta>  (373) 
5.0237433278455228

>  <std_smi>  (373) 
CC(=O)Nc1nc(C)c(-c2ccccn2)s1

>  <enum_smi>  (373) 
C=c1[nH]c(=NC(C)=O)sc1=C1C=CCC=N1

>  <enum_code>  (373) 
T

>  <parent_uuid>  (373) 
38ce1dff-635b-49bf-aa41-0dda23e4ce8b

>  <o3da_score>  (373) 
88.274303883929036

>  <o3da_score_rel>  (373) 
0.35143282965447259

>  <o3da_align>  (373) 
0.41833047018570124

>  <RMSD>  (373) 
7.7583178738505949e-05

>  <CONVERGED>  (373) 
0

>  <ENERGY>  (373) 
-1.0636829855943895

$$$$
f28c9abe-0817-4e28-8cb4-3fa9c2b69f13
     RDKit          3D

 16 17  0  0  0  0  0  0  0  0999 V2000
   -2.4416   27.1006    2.7374 C   0  0  0  0  0  0  0  0  0  0  0  0
   -2.3269   28.4113    2.4802 C   0  0  0  0  0  0  0  0  0  0  0  0
   -1.3720   28.8995    1.6143 N   0  0  0  0  0  0  0  0  0  0  0  0
   -1.2604   30.2427    1.4234 C   0  0  0  0  0  0  0  0  0  0  0  0
   -0.3910   30.7895    0.6405 N   0  0  0  0  0  0  0  0  0  0  0  0
   -0.3679   32.1568    0.5730 C   0  0  0  0  0  0  0  0  0  0  0  0
   -0.8873   32.7132   -0.7259 C   0  0  0  0  0  0  0  0  0  0  0  0
    0.0965   32.8805    1.4472 O   0  0  0  0  0  0  0  0  0  0  0  0
   -2.4999   31.0518    2.3818 S   0  0  0  0  0  0  0  0  0  0  0  0
   -3.1351   29.5187    3.0448 C   0  0  0  0  0  0  0  0  0  0  0  0
   -4.1886   29.4667    3.9046 C   0  0  0  0  0  0  0  0  0  0  0  0
   -4.8834   30.6678    4.3765 C   0  0  0  0  0  0  0  0  0  0  0  0
   -5.9232   30.6337    5.2188 C   0  0  0  0  0  0  0  0  0  0  0  0
   -6.4516   29.3513    5.7413 C   0  0  0  0  0  0  0  0  0  0  0  0
   -5.6614   28.1949    5.1928 C   0  0  0  0  0  0  0  0  0  0  0  0
   -4.6560   28.2532    4.3754 N   0  0  0  0  0  0  0  0  0  0  0  0
  1  2  2  3
  2  3  1  0
  3  4  1  0
  4  5  2  3
  5  6  1  0
  6  7  1  0
  6  8  2  0
  4  9  1  0
  9 10  1  0
 10 11  2  3
 11 12  1  0
 12 13  2  0
 13 14  1  0
 14 15  1  0
 15 16  2  0
 10  2  1  0
 16 11  1  0
M  END
>  <Energy>  (374) 
1.419672997671269

>  <Energy_Delta>  (374) 
7.5070993110592159

>  <std_smi>  (374) 
CC(=O)Nc1nc(C)c(-c2ccccn2)s1

>  <enum_smi>  (374) 
C=c1[nH]c(=NC(C)=O)sc1=C1C=CCC=N1

>  <enum_code>  (374) 
T

>  <parent_uuid>  (374) 
38ce1dff-635b-49bf-aa41-0dda23e4ce8b

>  <o3da_score>  (374) 
83.653266471950531

>  <o3da_score_rel>  (374) 
0.33303580829969476

>  <o3da_align>  (374) 
0.50500373234286433

>  <RMSD>  (374) 
7.4604826929461327e-05

>  <CONVERGED>  (374) 
0

>  <ENERGY>  (374) 
1.4196729976050229

$$$$
f28c9abe-0817-4e28-8cb4-3fa9c2b69f13
     RDKit          3D

 16 17  0  0  0  0  0  0  0  0999 V2000
   -3.7327   27.5745    1.8646 C   0  0  0  0  0  0  0  0  0  0  0  0
   -2.9449   28.6327    2.1030 C   0  0  0  0  0  0  0  0  0  0  0  0
   -2.1196   29.1560    1.1308 N   0  0  0  0  0  0  0  0  0  0  0  0
   -1.3755   30.2627    1.4042 C   0  0  0  0  0  0  0  0  0  0  0  0
   -0.5836   30.8266    0.5539 N   0  0  0  0  0  0  0  0  0  0  0  0
    0.0766   31.9574    0.9538 C   0  0  0  0  0  0  0  0  0  0  0  0
    1.5525   31.7578    1.1732 C   0  0  0  0  0  0  0  0  0  0  0  0
   -0.4499   33.0598    1.0592 O   0  0  0  0  0  0  0  0  0  0  0  0
   -1.6629   30.7341    3.0788 S   0  0  0  0  0  0  0  0  0  0  0  0
   -2.8228   29.4047    3.3629 C   0  0  0  0  0  0  0  0  0  0  0  0
   -3.4339   29.2020    4.5617 C   0  0  0  0  0  0  0  0  0  0  0  0
   -3.2069   30.0694    5.7210 C   0  0  0  0  0  0  0  0  0  0  0  0
   -3.7970   29.8816    6.9078 C   0  0  0  0  0  0  0  0  0  0  0  0
   -4.7394   28.7598    7.1324 C   0  0  0  0  0  0  0  0  0  0  0  0
   -4.8944   27.9446    5.8779 C   0  0  0  0  0  0  0  0  0  0  0  0
   -4.3101   28.1464    4.7376 N   0  0  0  0  0  0  0  0  0  0  0  0
  1  2  2  3
  2  3  1  0
  3  4  1  0
  4  5  2  3
  5  6  1  0
  6  7  1  0
  6  8  2  0
  4  9  1  0
  9 10  1  0
 10 11  2  3
 11 12  1  0
 12 13  2  0
 13 14  1  0
 14 15  1  0
 15 16  2  0
 10  2  1  0
 16 11  1  0
M  END
>  <Energy>  (375) 
1.419672997927961

>  <Energy_Delta>  (375) 
7.5070993113159075

>  <std_smi>  (375) 
CC(=O)Nc1nc(C)c(-c2ccccn2)s1

>  <enum_smi>  (375) 
C=c1[nH]c(=NC(C)=O)sc1=C1C=CCC=N1

>  <enum_code>  (375) 
T

>  <parent_uuid>  (375) 
38ce1dff-635b-49bf-aa41-0dda23e4ce8b

>  <o3da_score>  (375) 
82.332182887777108

>  <o3da_score_rel>  (375) 
0.32777638260310016

>  <o3da_align>  (375) 
0.51245503498824252

>  <RMSD>  (375) 
7.6804094609997779e-05

>  <CONVERGED>  (375) 
0

>  <ENERGY>  (375) 
1.4196729976053448

$$$$
f28c9abe-0817-4e28-8cb4-3fa9c2b69f13
     RDKit          3D

 16 17  0  0  0  0  0  0  0  0999 V2000
   -2.2806   31.9935    5.5863 C   0  0  0  0  0  0  0  0  0  0  0  0
   -2.0648   31.7630    4.2834 C   0  0  0  0  0  0  0  0  0  0  0  0
   -1.5512   32.7230    3.4374 N   0  0  0  0  0  0  0  0  0  0  0  0
   -0.9468   32.3136    2.2817 C   0  0  0  0  0  0  0  0  0  0  0  0
   -0.3295   33.1113    1.4747 N   0  0  0  0  0  0  0  0  0  0  0  0
    0.2778   32.5547    0.3807 C   0  0  0  0  0  0  0  0  0  0  0  0
   -0.4876   32.7244   -0.9050 C   0  0  0  0  0  0  0  0  0  0  0  0
    1.3887   32.0364    0.4091 O   0  0  0  0  0  0  0  0  0  0  0  0
   -1.1542   30.5673    2.1155 S   0  0  0  0  0  0  0  0  0  0  0  0
   -2.1686   30.4685    3.5850 C   0  0  0  0  0  0  0  0  0  0  0  0
   -2.9381   29.3749    3.8221 C   0  0  0  0  0  0  0  0  0  0  0  0
   -3.9633   29.3218    4.8597 C   0  0  0  0  0  0  0  0  0  0  0  0
   -4.5667   28.1838    5.2254 C   0  0  0  0  0  0  0  0  0  0  0  0
   -4.2340   26.8948    4.5663 C   0  0  0  0  0  0  0  0  0  0  0  0
   -3.3916   27.1418    3.3429 C   0  0  0  0  0  0  0  0  0  0  0  0
   -2.8209   28.2578    3.0106 N   0  0  0  0  0  0  0  0  0  0  0  0
  1  2  2  3
  2  3  1  0
  3  4  1  0
  4  5  2  3
  5  6  1  0
  6  7  1  0
  6  8  2  0
  4  9  1  0
  9 10  1  0
 10 11  2  3
 11 12  1  0
 12 13  2  0
 13 14  1  0
 14 15  1  0
 15 16  2  0
 10  2  1  0
 16 11  1  0
M  END
>  <Energy>  (376) 
6.3822573917526313

>  <Energy_Delta>  (376) 
12.469683705140579

>  <std_smi>  (376) 
CC(=O)Nc1nc(C)c(-c2ccccn2)s1

>  <enum_smi>  (376) 
C=c1[nH]c(=NC(C)=O)sc1=C1C=CCC=N1

>  <enum_code>  (376) 
T

>  <parent_uuid>  (376) 
38ce1dff-635b-49bf-aa41-0dda23e4ce8b

>  <o3da_score>  (376) 
85.226968755274982

>  <o3da_score_rel>  (376) 
0.33930094574206549

>  <o3da_align>  (376) 
0.50898738085109663

>  <RMSD>  (376) 
5.8713933442008149e-05

>  <CONVERGED>  (376) 
0

>  <ENERGY>  (376) 
6.3822573915701994

$$$$
f28c9abe-0817-4e28-8cb4-3fa9c2b69f13
     RDKit          3D

 16 17  0  0  0  0  0  0  0  0999 V2000
   -1.7399   27.1011    3.1379 C   0  0  0  0  0  0  0  0  0  0  0  0
   -1.9505   28.3614    2.7321 C   0  0  0  0  0  0  0  0  0  0  0  0
   -1.3463   28.8879    1.6101 N   0  0  0  0  0  0  0  0  0  0  0  0
   -1.2373   30.2468    1.5088 C   0  0  0  0  0  0  0  0  0  0  0  0
   -0.5897   30.8450    0.5647 N   0  0  0  0  0  0  0  0  0  0  0  0
   -0.5167   32.2114    0.6186 C   0  0  0  0  0  0  0  0  0  0  0  0
   -1.4577   32.9189   -0.3204 C   0  0  0  0  0  0  0  0  0  0  0  0
    0.2982   32.8231    1.3009 O   0  0  0  0  0  0  0  0  0  0  0  0
   -2.1026   30.9920    2.8564 S   0  0  0  0  0  0  0  0  0  0  0  0
   -2.6885   29.4124    3.4565 C   0  0  0  0  0  0  0  0  0  0  0  0
   -3.7208   29.3464    4.3364 C   0  0  0  0  0  0  0  0  0  0  0  0
   -4.4057   28.1047    4.6818 C   0  0  0  0  0  0  0  0  0  0  0  0
   -5.2736   28.0134    5.6974 C   0  0  0  0  0  0  0  0  0  0  0  0
   -5.6080   29.1992    6.5275 C   0  0  0  0  0  0  0  0  0  0  0  0
   -5.0619   30.4485    5.8885 C   0  0  0  0  0  0  0  0  0  0  0  0
   -4.2233   30.5078    4.9012 N   0  0  0  0  0  0  0  0  0  0  0  0
  1  2  2  3
  2  3  1  0
  3  4  1  0
  4  5  2  3
  5  6  1  0
  6  7  1  0
  6  8  2  0
  4  9  1  0
  9 10  1  0
 10 11  2  3
 11 12  1  0
 12 13  2  0
 13 14  1  0
 14 15  1  0
 15 16  2  0
 10  2  1  0
 16 11  1  0
M  END
>  <Energy>  (377) 
6.3822573918149939

>  <Energy_Delta>  (377) 
12.469683705202939

>  <std_smi>  (377) 
CC(=O)Nc1nc(C)c(-c2ccccn2)s1

>  <enum_smi>  (377) 
C=c1[nH]c(=NC(C)=O)sc1=C1C=CCC=N1

>  <enum_code>  (377) 
T

>  <parent_uuid>  (377) 
38ce1dff-635b-49bf-aa41-0dda23e4ce8b

>  <o3da_score>  (377) 
79.02491578233915

>  <o3da_score_rel>  (377) 
0.31460967172407139

>  <o3da_align>  (377) 
0.50304340503265776

>  <RMSD>  (377) 
6.4532647184045665e-05

>  <CONVERGED>  (377) 
0

>  <ENERGY>  (377) 
6.3822573915748126

$$$$
f28c9abe-0817-4e28-8cb4-3fa9c2b69f13
     RDKit          3D

 16 17  0  0  0  0  0  0  0  0999 V2000
   -3.5675   23.4546    4.2273 C   0  0  0  0  0  0  0  0  0  0  0  0
   -4.7267   24.1170    4.1054 C   0  0  0  0  0  0  0  0  0  0  0  0
   -5.9019   23.4862    3.7593 N   0  0  0  0  0  0  0  0  0  0  0  0
   -6.9297   24.2380    3.2649 C   0  0  0  0  0  0  0  0  0  0  0  0
   -8.0225   23.7367    2.7926 N   0  0  0  0  0  0  0  0  0  0  0  0
   -8.9814   24.6126    2.3577 C   0  0  0  0  0  0  0  0  0  0  0  0
   -9.0679   24.7386    0.8596 C   0  0  0  0  0  0  0  0  0  0  0  0
   -9.7691   25.1870    3.1013 O   0  0  0  0  0  0  0  0  0  0  0  0
   -6.4653   25.9413    3.3177 S   0  0  0  0  0  0  0  0  0  0  0  0
   -4.9234   25.5783    4.1508 C   0  0  0  0  0  0  0  0  0  0  0  0
   -4.2264   26.5657    4.7709 C   0  0  0  0  0  0  0  0  0  0  0  0
   -3.1108   26.3164    5.6783 C   0  0  0  0  0  0  0  0  0  0  0  0
   -2.3126   27.2901    6.1343 C   0  0  0  0  0  0  0  0  0  0  0  0
   -2.5366   28.7074    5.7508 C   0  0  0  0  0  0  0  0  0  0  0  0
   -3.8564   28.8501    5.0407 C   0  0  0  0  0  0  0  0  0  0  0  0
   -4.6100   27.8873    4.6092 N   0  0  0  0  0  0  0  0  0  0  0  0
  1  2  2  3
  2  3  1  0
  3  4  1  0
  4  5  2  3
  5  6  1  0
  6  7  1  0
  6  8  2  0
  4  9  1  0
  9 10  1  0
 10 11  2  3
 11 12  1  0
 12 13  2  0
 13 14  1  0
 14 15  1  0
 15 16  2  0
 10  2  1  0
 16 11  1  0
M  END
>  <Energy>  (378) 
6.8046962929119355

>  <Energy_Delta>  (378) 
12.892122606299882

>  <std_smi>  (378) 
CC(=O)Nc1nc(C)c(-c2ccccn2)s1

>  <enum_smi>  (378) 
C=c1[nH]c(=NC(C)=O)sc1=C1C=CCC=N1

>  <enum_code>  (378) 
T

>  <parent_uuid>  (378) 
38ce1dff-635b-49bf-aa41-0dda23e4ce8b

>  <o3da_score>  (378) 
70.211903072714534

>  <o3da_score_rel>  (378) 
0.27952378763263003

>  <o3da_align>  (378) 
0.33922311349246054

>  <RMSD>  (378) 
6.1085426966657778e-05

>  <CONVERGED>  (378) 
0

>  <ENERGY>  (378) 
6.8046962928036212

$$$$
31294afe-14b0-406d-b546-7b8f6997a3b1
     RDKit          3D

 16 17  0  0  0  0  0  0  0  0999 V2000
   -3.8159   31.9391    4.1012 C   0  0  0  0  0  0  0  0  0  0  0  0
   -2.9968   31.2157    3.3270 C   0  0  0  0  0  0  0  0  0  0  0  0
   -2.1822   31.8691    2.4230 N   0  0  0  0  0  0  0  0  0  0  0  0
   -1.7971   31.0645    1.4836 C   0  0  0  0  0  0  0  0  0  0  0  0
   -1.0311   31.4975    0.4476 N   0  0  0  0  0  0  0  0  0  0  0  0
    0.2411   31.4831    0.6401 C   0  0  0  0  0  0  0  0  0  0  0  0
    1.2065   31.9615   -0.3958 C   0  0  0  0  0  0  0  0  0  0  0  0
    0.8155   31.0274    1.7689 O   0  0  0  0  0  0  0  0  0  0  0  0
   -2.3561   29.4094    1.5734 S   0  0  0  0  0  0  0  0  0  0  0  0
   -2.9829   29.7591    3.1785 C   0  0  0  0  0  0  0  0  0  0  0  0
   -3.2565   28.7568    4.0494 C   0  0  0  0  0  0  0  0  0  0  0  0
   -3.5871   28.9711    5.4704 C   0  0  0  0  0  0  0  0  0  0  0  0
   -3.8999   27.9444    6.2861 C   0  0  0  0  0  0  0  0  0  0  0  0
   -3.9165   26.5829    5.7884 C   0  0  0  0  0  0  0  0  0  0  0  0
   -3.5631   26.3726    4.5124 C   0  0  0  0  0  0  0  0  0  0  0  0
   -3.2128   27.4073    3.6812 N   0  0  0  0  0  0  0  0  0  0  0  0
  1  2  2  3
  2  3  1  0
  3  4  2  0
  4  5  1  0
  5  6  2  3
  6  7  1  0
  6  8  1  0
  4  9  1  0
  9 10  1  0
 10 11  2  3
 11 12  1  0
 12 13  2  0
 13 14  1  0
 14 15  2  0
 15 16  1  0
 10  2  1  0
 16 11  1  0
M  END
>  <Energy>  (379) 
-18.951100892060747

>  <Energy_Delta>  (379) 
0

>  <std_smi>  (379) 
CC(=O)Nc1nc(C)c(-c2ccccn2)s1

>  <enum_smi>  (379) 
C=c1nc(N=C(C)O)sc1=C1C=CC=CN1

>  <enum_code>  (379) 
T

>  <parent_uuid>  (379) 
38ce1dff-635b-49bf-aa41-0dda23e4ce8b

>  <o3da_score>  (379) 
86.138180018606775

>  <o3da_score_rel>  (379) 
0.34292861017663057

>  <o3da_align>  (379) 
0.3964112371568862

>  <RMSD>  (379) 
0.69998300508744205

>  <CONVERGED>  (379) 
0

>  <ENERGY>  (379) 
-10.953245599197755

$$$$
31294afe-14b0-406d-b546-7b8f6997a3b1
     RDKit          3D

 16 17  0  0  0  0  0  0  0  0999 V2000
   -1.8767   30.3128    5.2554 C   0  0  0  0  0  0  0  0  0  0  0  0
   -1.7962   30.1035    3.9351 C   0  0  0  0  0  0  0  0  0  0  0  0
   -1.0384   30.9657    3.1672 N   0  0  0  0  0  0  0  0  0  0  0  0
   -0.7044   30.4117    2.0448 C   0  0  0  0  0  0  0  0  0  0  0  0
    0.0910   31.0505    1.1466 N   0  0  0  0  0  0  0  0  0  0  0  0
   -0.5087   31.8165    0.3043 C   0  0  0  0  0  0  0  0  0  0  0  0
    0.2377   32.6086   -0.7200 C   0  0  0  0  0  0  0  0  0  0  0  0
   -1.8459   31.9621    0.2555 O   0  0  0  0  0  0  0  0  0  0  0  0
   -1.2714   28.7814    1.7613 S   0  0  0  0  0  0  0  0  0  0  0  0
   -2.2740   28.9320    3.1979 C   0  0  0  0  0  0  0  0  0  0  0  0
   -3.3304   28.1058    3.3957 C   0  0  0  0  0  0  0  0  0  0  0  0
   -4.3331   28.2954    4.4603 C   0  0  0  0  0  0  0  0  0  0  0  0
   -5.3395   27.4184    4.6478 C   0  0  0  0  0  0  0  0  0  0  0  0
   -5.4723   26.2519    3.7972 C   0  0  0  0  0  0  0  0  0  0  0  0
   -4.5985   26.1008    2.7918 C   0  0  0  0  0  0  0  0  0  0  0  0
   -3.5884   27.0039    2.5724 N   0  0  0  0  0  0  0  0  0  0  0  0
  1  2  2  3
  2  3  1  0
  3  4  2  0
  4  5  1  0
  5  6  2  3
  6  7  1  0
  6  8  1  0
  4  9  1  0
  9 10  1  0
 10 11  2  3
 11 12  1  0
 12 13  2  0
 13 14  1  0
 14 15  2  0
 15 16  1  0
 10  2  1  0
 16 11  1  0
M  END
>  <Energy>  (380) 
-18.951100891920817

>  <Energy_Delta>  (380) 
1.3993073366691533e-10

>  <std_smi>  (380) 
CC(=O)Nc1nc(C)c(-c2ccccn2)s1

>  <enum_smi>  (380) 
C=c1nc(N=C(C)O)sc1=C1C=CC=CN1

>  <enum_code>  (380) 
T

>  <parent_uuid>  (380) 
38ce1dff-635b-49bf-aa41-0dda23e4ce8b

>  <o3da_score>  (380) 
89.074016634171912

>  <o3da_score_rel>  (380) 
0.35461660230815623

>  <o3da_align>  (380) 
0.41415596459852649

>  <RMSD>  (380) 
0.69994716100581644

>  <CONVERGED>  (380) 
0

>  <ENERGY>  (380) 
-10.953245599196981

$$$$
31294afe-14b0-406d-b546-7b8f6997a3b1
     RDKit          3D

 16 17  0  0  0  0  0  0  0  0999 V2000
   -6.0821   28.5350    3.1447 C   0  0  0  0  0  0  0  0  0  0  0  0
   -4.7906   28.6683    3.4720 C   0  0  0  0  0  0  0  0  0  0  0  0
   -4.1239   29.8223    3.1089 N   0  0  0  0  0  0  0  0  0  0  0  0
   -3.0766   30.0056    3.8496 C   0  0  0  0  0  0  0  0  0  0  0  0
   -2.2727   31.0930    3.7290 N   0  0  0  0  0  0  0  0  0  0  0  0
   -1.7617   31.3540    2.5765 C   0  0  0  0  0  0  0  0  0  0  0  0
   -1.9022   30.5808    1.2969 C   0  0  0  0  0  0  0  0  0  0  0  0
   -1.0078   32.4663    2.4667 O   0  0  0  0  0  0  0  0  0  0  0  0
   -2.7372   28.7865    5.0548 S   0  0  0  0  0  0  0  0  0  0  0  0
   -4.0105   27.7988    4.3534 C   0  0  0  0  0  0  0  0  0  0  0  0
   -4.0636   26.4651    4.5897 C   0  0  0  0  0  0  0  0  0  0  0  0
   -4.9689   25.5412    3.8813 C   0  0  0  0  0  0  0  0  0  0  0  0
   -5.0184   24.2288    4.1853 C   0  0  0  0  0  0  0  0  0  0  0  0
   -4.1720   23.6780    5.2254 C   0  0  0  0  0  0  0  0  0  0  0  0
   -3.3070   24.4996    5.8368 C   0  0  0  0  0  0  0  0  0  0  0  0
   -3.2250   25.8311    5.5131 N   0  0  0  0  0  0  0  0  0  0  0  0
  1  2  2  3
  2  3  1  0
  3  4  2  0
  4  5  1  0
  5  6  2  3
  6  7  1  0
  6  8  1  0
  4  9  1  0
  9 10  1  0
 10 11  2  3
 11 12  1  0
 12 13  2  0
 13 14  1  0
 14 15  2  0
 15 16  1  0
 10  2  1  0
 16 11  1  0
M  END
>  <Energy>  (381) 
-18.935115012679653

>  <Energy_Delta>  (381) 
0.015985879381094747

>  <std_smi>  (381) 
CC(=O)Nc1nc(C)c(-c2ccccn2)s1

>  <enum_smi>  (381) 
C=c1nc(N=C(C)O)sc1=C1C=CC=CN1

>  <enum_code>  (381) 
T

>  <parent_uuid>  (381) 
38ce1dff-635b-49bf-aa41-0dda23e4ce8b

>  <o3da_score>  (381) 
77.136881269980222

>  <o3da_score_rel>  (381) 
0.30709313200673699

>  <o3da_align>  (381) 
0.55433214694244526

>  <RMSD>  (381) 
0.044441674363471316

>  <CONVERGED>  (381) 
0

>  <ENERGY>  (381) 
-11.311103792912236

$$$$
31294afe-14b0-406d-b546-7b8f6997a3b1
     RDKit          3D

 16 17  0  0  0  0  0  0  0  0999 V2000
   -0.7947   30.3208    0.2453 C   0  0  0  0  0  0  0  0  0  0  0  0
   -1.2260   30.2421    1.5105 C   0  0  0  0  0  0  0  0  0  0  0  0
   -1.6151   29.0142    2.0097 N   0  0  0  0  0  0  0  0  0  0  0  0
   -2.3999   29.1563    3.0311 C   0  0  0  0  0  0  0  0  0  0  0  0
   -2.9613   28.1031    3.6782 N   0  0  0  0  0  0  0  0  0  0  0  0
   -2.1885   27.1804    4.1351 C   0  0  0  0  0  0  0  0  0  0  0  0
   -0.6893   27.1098    4.0859 C   0  0  0  0  0  0  0  0  0  0  0  0
   -2.7696   26.1187    4.7293 O   0  0  0  0  0  0  0  0  0  0  0  0
   -2.7377   30.7913    3.5474 S   0  0  0  0  0  0  0  0  0  0  0  0
   -1.5211   31.3564    2.4121 C   0  0  0  0  0  0  0  0  0  0  0  0
   -0.9677   32.5868    2.5437 C   0  0  0  0  0  0  0  0  0  0  0  0
    0.1945   33.0520    1.7642 C   0  0  0  0  0  0  0  0  0  0  0  0
    0.6798   34.3026    1.8972 C   0  0  0  0  0  0  0  0  0  0  0  0
    0.0712   35.2376    2.8230 C   0  0  0  0  0  0  0  0  0  0  0  0
   -0.9511   34.8063    3.5754 C   0  0  0  0  0  0  0  0  0  0  0  0
   -1.4329   33.5251    3.4717 N   0  0  0  0  0  0  0  0  0  0  0  0
  1  2  2  3
  2  3  1  0
  3  4  2  0
  4  5  1  0
  5  6  2  3
  6  7  1  0
  6  8  1  0
  4  9  1  0
  9 10  1  0
 10 11  2  3
 11 12  1  0
 12 13  2  0
 13 14  1  0
 14 15  2  0
 15 16  1  0
 10  2  1  0
 16 11  1  0
M  END
>  <Energy>  (382) 
-18.93511501076102

>  <Energy_Delta>  (382) 
0.015985881299727112

>  <std_smi>  (382) 
CC(=O)Nc1nc(C)c(-c2ccccn2)s1

>  <enum_smi>  (382) 
C=c1nc(N=C(C)O)sc1=C1C=CC=CN1

>  <enum_code>  (382) 
T

>  <parent_uuid>  (382) 
38ce1dff-635b-49bf-aa41-0dda23e4ce8b

>  <o3da_score>  (382) 
71.244620083883134

>  <o3da_score_rel>  (382) 
0.28363518410361782

>  <o3da_align>  (382) 
0.48145693830128344

>  <RMSD>  (382) 
0.044444029772117644

>  <CONVERGED>  (382) 
0

>  <ENERGY>  (382) 
-11.31110379290805

$$$$
31294afe-14b0-406d-b546-7b8f6997a3b1
     RDKit          3D

 16 17  0  0  0  0  0  0  0  0999 V2000
   -2.0229   29.6729    6.7026 C   0  0  0  0  0  0  0  0  0  0  0  0
   -2.1367   29.5433    5.3747 C   0  0  0  0  0  0  0  0  0  0  0  0
   -1.3726   30.3527    4.5567 N   0  0  0  0  0  0  0  0  0  0  0  0
   -1.8966   30.4457    3.3752 C   0  0  0  0  0  0  0  0  0  0  0  0
   -1.3438   31.1864    2.3806 N   0  0  0  0  0  0  0  0  0  0  0  0
   -1.0797   32.4257    2.6074 C   0  0  0  0  0  0  0  0  0  0  0  0
   -1.3356   33.2221    3.8545 C   0  0  0  0  0  0  0  0  0  0  0  0
   -0.4839   33.1259    1.6211 O   0  0  0  0  0  0  0  0  0  0  0  0
   -3.3495   29.5205    3.0800 S   0  0  0  0  0  0  0  0  0  0  0  0
   -3.1325   28.7551    4.6472 C   0  0  0  0  0  0  0  0  0  0  0  0
   -3.7613   27.5913    4.9437 C   0  0  0  0  0  0  0  0  0  0  0  0
   -3.4792   26.7888    6.1484 C   0  0  0  0  0  0  0  0  0  0  0  0
   -4.1616   25.6585    6.4207 C   0  0  0  0  0  0  0  0  0  0  0  0
   -5.1997   25.1871    5.5253 C   0  0  0  0  0  0  0  0  0  0  0  0
   -5.4263   25.8806    4.4007 C   0  0  0  0  0  0  0  0  0  0  0  0
   -4.7218   27.0200    4.1019 N   0  0  0  0  0  0  0  0  0  0  0  0
  1  2  2  3
  2  3  1  0
  3  4  2  0
  4  5  1  0
  5  6  2  3
  6  7  1  0
  6  8  1  0
  4  9  1  0
  9 10  1  0
 10 11  2  3
 11 12  1  0
 12 13  2  0
 13 14  1  0
 14 15  2  0
 15 16  1  0
 10  2  1  0
 16 11  1  0
M  END
>  <Energy>  (383) 
-18.872624750789242

>  <Energy_Delta>  (383) 
0.078476141271504929

>  <std_smi>  (383) 
CC(=O)Nc1nc(C)c(-c2ccccn2)s1

>  <enum_smi>  (383) 
C=c1nc(N=C(C)O)sc1=C1C=CC=CN1

>  <enum_code>  (383) 
T

>  <parent_uuid>  (383) 
38ce1dff-635b-49bf-aa41-0dda23e4ce8b

>  <o3da_score>  (383) 
73.692389277692783

>  <o3da_score_rel>  (383) 
0.29338010891494992

>  <o3da_align>  (383) 
0.6822776979744023

>  <RMSD>  (383) 
0.048920634786485361

>  <CONVERGED>  (383) 
0

>  <ENERGY>  (383) 
-11.159623263275357

$$$$
31294afe-14b0-406d-b546-7b8f6997a3b1
     RDKit          3D

 16 17  0  0  0  0  0  0  0  0999 V2000
   -2.4330   30.5621    4.5269 C   0  0  0  0  0  0  0  0  0  0  0  0
   -2.0535   30.0315    3.3568 C   0  0  0  0  0  0  0  0  0  0  0  0
   -1.0207   30.6200    2.6552 N   0  0  0  0  0  0  0  0  0  0  0  0
   -1.0629   30.2848    1.4044 C   0  0  0  0  0  0  0  0  0  0  0  0
   -0.1604   30.7316    0.4940 N   0  0  0  0  0  0  0  0  0  0  0  0
    0.0014   32.0018    0.3618 C   0  0  0  0  0  0  0  0  0  0  0  0
   -0.7161   33.1125    1.0735 C   0  0  0  0  0  0  0  0  0  0  0  0
    0.9386   32.4232   -0.5110 O   0  0  0  0  0  0  0  0  0  0  0  0
   -2.3213   29.1715    0.9282 S   0  0  0  0  0  0  0  0  0  0  0  0
   -2.7335   28.9613    2.6175 C   0  0  0  0  0  0  0  0  0  0  0  0
   -3.4571   27.9223    3.1079 C   0  0  0  0  0  0  0  0  0  0  0  0
   -4.1360   26.9473    2.2222 C   0  0  0  0  0  0  0  0  0  0  0  0
   -4.8120   25.8905    2.7129 C   0  0  0  0  0  0  0  0  0  0  0  0
   -4.8818   25.6589    4.1401 C   0  0  0  0  0  0  0  0  0  0  0  0
   -4.2759   26.5361    4.9515 C   0  0  0  0  0  0  0  0  0  0  0  0
   -3.6186   27.6458    4.4708 N   0  0  0  0  0  0  0  0  0  0  0  0
  1  2  2  3
  2  3  1  0
  3  4  2  0
  4  5  1  0
  5  6  2  3
  6  7  1  0
  6  8  1  0
  4  9  1  0
  9 10  1  0
 10 11  2  3
 11 12  1  0
 12 13  2  0
 13 14  1  0
 14 15  2  0
 15 16  1  0
 10  2  1  0
 16 11  1  0
M  END
>  <Energy>  (384) 
-17.303443401443324

>  <Energy_Delta>  (384) 
1.6476574906174228

>  <std_smi>  (384) 
CC(=O)Nc1nc(C)c(-c2ccccn2)s1

>  <enum_smi>  (384) 
C=c1nc(N=C(C)O)sc1=C1C=CC=CN1

>  <enum_code>  (384) 
T

>  <parent_uuid>  (384) 
38ce1dff-635b-49bf-aa41-0dda23e4ce8b

>  <o3da_score>  (384) 
75.545887916875301

>  <o3da_score_rel>  (384) 
0.30075915630324901

>  <o3da_align>  (384) 
0.48164246035670533

>  <RMSD>  (384) 
0.041618552462030403

>  <CONVERGED>  (384) 
0

>  <ENERGY>  (384) 
-9.539284613740266

$$$$
31294afe-14b0-406d-b546-7b8f6997a3b1
     RDKit          3D

 16 17  0  0  0  0  0  0  0  0999 V2000
   -2.4909   30.6573    4.7075 C   0  0  0  0  0  0  0  0  0  0  0  0
   -2.3155   30.2002    3.4605 C   0  0  0  0  0  0  0  0  0  0  0  0
   -1.8228   31.0544    2.4945 N   0  0  0  0  0  0  0  0  0  0  0  0
   -1.3132   30.3887    1.5068 C   0  0  0  0  0  0  0  0  0  0  0  0
   -0.7559   30.9916    0.4254 N   0  0  0  0  0  0  0  0  0  0  0  0
    0.1949   31.8382    0.6162 C   0  0  0  0  0  0  0  0  0  0  0  0
    0.8298   32.2513    1.9127 C   0  0  0  0  0  0  0  0  0  0  0  0
    0.6994   32.4630   -0.4668 O   0  0  0  0  0  0  0  0  0  0  0  0
   -1.4153   28.6476    1.5929 S   0  0  0  0  0  0  0  0  0  0  0  0
   -2.4278   28.8069    3.0131 C   0  0  0  0  0  0  0  0  0  0  0  0
   -3.2301   27.8248    3.4984 C   0  0  0  0  0  0  0  0  0  0  0  0
   -3.1866   26.4401    2.9727 C   0  0  0  0  0  0  0  0  0  0  0  0
   -4.0183   25.4810    3.4237 C   0  0  0  0  0  0  0  0  0  0  0  0
   -5.0081   25.7810    4.4363 C   0  0  0  0  0  0  0  0  0  0  0  0
   -5.0542   27.0285    4.9230 C   0  0  0  0  0  0  0  0  0  0  0  0
   -4.1834   28.0099    4.5069 N   0  0  0  0  0  0  0  0  0  0  0  0
  1  2  2  3
  2  3  1  0
  3  4  2  0
  4  5  1  0
  5  6  2  3
  6  7  1  0
  6  8  1  0
  4  9  1  0
  9 10  1  0
 10 11  2  3
 11 12  1  0
 12 13  2  0
 13 14  1  0
 14 15  2  0
 15 16  1  0
 10  2  1  0
 16 11  1  0
M  END
>  <Energy>  (385) 
-17.303443401053826

>  <Energy_Delta>  (385) 
1.647657491006921

>  <std_smi>  (385) 
CC(=O)Nc1nc(C)c(-c2ccccn2)s1

>  <enum_smi>  (385) 
C=c1nc(N=C(C)O)sc1=C1C=CC=CN1

>  <enum_code>  (385) 
T

>  <parent_uuid>  (385) 
38ce1dff-635b-49bf-aa41-0dda23e4ce8b

>  <o3da_score>  (385) 
87.367307084738542

>  <o3da_score_rel>  (385) 
0.34782194361399826

>  <o3da_align>  (385) 
0.49258279099421159

>  <RMSD>  (385) 
0.041621251718142044

>  <CONVERGED>  (385) 
0

>  <ENERGY>  (385) 
-9.5392846137192517

$$$$
31294afe-14b0-406d-b546-7b8f6997a3b1
     RDKit          3D

 16 17  0  0  0  0  0  0  0  0999 V2000
    0.1632   28.9222   -0.8966 C   0  0  0  0  0  0  0  0  0  0  0  0
   -0.0627   30.2336   -0.7423 C   0  0  0  0  0  0  0  0  0  0  0  0
   -0.2436   30.7406    0.5289 N   0  0  0  0  0  0  0  0  0  0  0  0
   -0.0153   32.0158    0.5529 C   0  0  0  0  0  0  0  0  0  0  0  0
   -0.0757   32.7505    1.6929 N   0  0  0  0  0  0  0  0  0  0  0  0
   -1.1638   32.7277    2.3805 C   0  0  0  0  0  0  0  0  0  0  0  0
   -2.4435   32.0028    2.0772 C   0  0  0  0  0  0  0  0  0  0  0  0
   -1.1863   33.4233    3.5352 O   0  0  0  0  0  0  0  0  0  0  0  0
    0.4026   32.7711   -0.9653 S   0  0  0  0  0  0  0  0  0  0  0  0
    0.0288   31.2665   -1.7805 C   0  0  0  0  0  0  0  0  0  0  0  0
   -0.2352   31.1573   -3.1078 C   0  0  0  0  0  0  0  0  0  0  0  0
   -0.0460   32.2903   -4.0441 C   0  0  0  0  0  0  0  0  0  0  0  0
   -0.3559   32.1926   -5.3516 C   0  0  0  0  0  0  0  0  0  0  0  0
   -0.9067   30.9664   -5.8885 C   0  0  0  0  0  0  0  0  0  0  0  0
   -1.0764   29.9326   -5.0532 C   0  0  0  0  0  0  0  0  0  0  0  0
   -0.7293   30.0017   -3.7235 N   0  0  0  0  0  0  0  0  0  0  0  0
  1  2  2  3
  2  3  1  0
  3  4  2  0
  4  5  1  0
  5  6  2  3
  6  7  1  0
  6  8  1  0
  4  9  1  0
  9 10  1  0
 10 11  2  3
 11 12  1  0
 12 13  2  0
 13 14  1  0
 14 15  2  0
 15 16  1  0
 10  2  1  0
 16 11  1  0
M  END
>  <Energy>  (386) 
-17.269027142657826

>  <Energy_Delta>  (386) 
1.682073749402921

>  <std_smi>  (386) 
CC(=O)Nc1nc(C)c(-c2ccccn2)s1

>  <enum_smi>  (386) 
C=c1nc(N=C(C)O)sc1=C1C=CC=CN1

>  <enum_code>  (386) 
T

>  <parent_uuid>  (386) 
38ce1dff-635b-49bf-aa41-0dda23e4ce8b

>  <o3da_score>  (386) 
66.547507283635994

>  <o3da_score_rel>  (386) 
0.26493529557470219

>  <o3da_align>  (386) 
0.60694279122298356

>  <RMSD>  (386) 
0.042017962487549507

>  <CONVERGED>  (386) 
0

>  <ENERGY>  (386) 
-9.5185683517708686

$$$$
31294afe-14b0-406d-b546-7b8f6997a3b1
     RDKit          3D

 16 17  0  0  0  0  0  0  0  0999 V2000
    0.8975   32.2986   -0.4076 C   0  0  0  0  0  0  0  0  0  0  0  0
   -0.0909   32.1262    0.4802 C   0  0  0  0  0  0  0  0  0  0  0  0
   -0.3359   33.1122    1.4147 N   0  0  0  0  0  0  0  0  0  0  0  0
   -0.9850   32.6343    2.4291 C   0  0  0  0  0  0  0  0  0  0  0  0
   -1.3097   33.3855    3.5123 N   0  0  0  0  0  0  0  0  0  0  0  0
   -1.9878   34.4644    3.3297 C   0  0  0  0  0  0  0  0  0  0  0  0
   -2.5243   35.0219    2.0427 C   0  0  0  0  0  0  0  0  0  0  0  0
   -2.2565   35.2225    4.4117 O   0  0  0  0  0  0  0  0  0  0  0  0
   -1.4204   30.9443    2.3618 S   0  0  0  0  0  0  0  0  0  0  0  0
   -0.8666   30.9004    0.7006 C   0  0  0  0  0  0  0  0  0  0  0  0
   -1.2191   29.9488   -0.2014 C   0  0  0  0  0  0  0  0  0  0  0  0
   -1.9694   28.7322    0.1899 C   0  0  0  0  0  0  0  0  0  0  0  0
   -2.3600   27.8147   -0.7159 C   0  0  0  0  0  0  0  0  0  0  0  0
   -2.0702   27.9980   -2.1222 C   0  0  0  0  0  0  0  0  0  0  0  0
   -1.3867   29.0909   -2.4879 C   0  0  0  0  0  0  0  0  0  0  0  0
   -0.9460   30.0187   -1.5723 N   0  0  0  0  0  0  0  0  0  0  0  0
  1  2  2  3
  2  3  1  0
  3  4  2  0
  4  5  1  0
  5  6  2  3
  6  7  1  0
  6  8  1  0
  4  9  1  0
  9 10  1  0
 10 11  2  3
 11 12  1  0
 12 13  2  0
 13 14  1  0
 14 15  2  0
 15 16  1  0
 10  2  1  0
 16 11  1  0
M  END
>  <Energy>  (387) 
-17.269027142617894

>  <Energy_Delta>  (387) 
1.6820737494428535

>  <std_smi>  (387) 
CC(=O)Nc1nc(C)c(-c2ccccn2)s1

>  <enum_smi>  (387) 
C=c1nc(N=C(C)O)sc1=C1C=CC=CN1

>  <enum_code>  (387) 
T

>  <parent_uuid>  (387) 
38ce1dff-635b-49bf-aa41-0dda23e4ce8b

>  <o3da_score>  (387) 
65.192188367451777

>  <o3da_score_rel>  (387) 
0.25953957404711997

>  <o3da_align>  (387) 
0.26289066095038077

>  <RMSD>  (387) 
0.04202414466714844

>  <CONVERGED>  (387) 
0

>  <ENERGY>  (387) 
-9.5185683517822781

$$$$
31294afe-14b0-406d-b546-7b8f6997a3b1
     RDKit          3D

 16 17  0  0  0  0  0  0  0  0999 V2000
   -4.1346   26.8848    1.7236 C   0  0  0  0  0  0  0  0  0  0  0  0
   -3.5713   27.5554    2.7376 C   0  0  0  0  0  0  0  0  0  0  0  0
   -2.5535   28.4482    2.4705 N   0  0  0  0  0  0  0  0  0  0  0  0
   -2.4366   29.3090    3.4313 C   0  0  0  0  0  0  0  0  0  0  0  0
   -1.4958   30.2893    3.3947 N   0  0  0  0  0  0  0  0  0  0  0  0
   -1.8414   31.3838    2.8133 C   0  0  0  0  0  0  0  0  0  0  0  0
   -0.9024   32.5378    2.6706 C   0  0  0  0  0  0  0  0  0  0  0  0
   -3.0675   31.5963    2.2997 O   0  0  0  0  0  0  0  0  0  0  0  0
   -3.4810   29.0999    4.8176 S   0  0  0  0  0  0  0  0  0  0  0  0
   -4.0301   27.5838    4.1319 C   0  0  0  0  0  0  0  0  0  0  0  0
   -4.6572   26.6059    4.8351 C   0  0  0  0  0  0  0  0  0  0  0  0
   -5.1116   26.8062    6.2312 C   0  0  0  0  0  0  0  0  0  0  0  0
   -5.6875   25.8167    6.9412 C   0  0  0  0  0  0  0  0  0  0  0  0
   -5.8665   24.5022    6.3619 C   0  0  0  0  0  0  0  0  0  0  0  0
   -5.4650   24.3103    5.0980 C   0  0  0  0  0  0  0  0  0  0  0  0
   -4.9152   25.3209    4.3430 N   0  0  0  0  0  0  0  0  0  0  0  0
  1  2  2  3
  2  3  1  0
  3  4  2  0
  4  5  1  0
  5  6  2  3
  6  7  1  0
  6  8  1  0
  4  9  1  0
  9 10  1  0
 10 11  2  3
 11 12  1  0
 12 13  2  0
 13 14  1  0
 14 15  2  0
 15 16  1  0
 10  2  1  0
 16 11  1  0
M  END
>  <Energy>  (388) 
-17.211726852157611

>  <Energy_Delta>  (388) 
1.7393740399031365

>  <std_smi>  (388) 
CC(=O)Nc1nc(C)c(-c2ccccn2)s1

>  <enum_smi>  (388) 
C=c1nc(N=C(C)O)sc1=C1C=CC=CN1

>  <enum_code>  (388) 
T

>  <parent_uuid>  (388) 
38ce1dff-635b-49bf-aa41-0dda23e4ce8b

>  <o3da_score>  (388) 
69.304419587513877

>  <o3da_score_rel>  (388) 
0.27591096402443577

>  <o3da_align>  (388) 
0.50633678055450593

>  <RMSD>  (388) 
0.69644499058635301

>  <CONVERGED>  (388) 
0

>  <ENERGY>  (388) 
-9.346822486625328

$$$$
31294afe-14b0-406d-b546-7b8f6997a3b1
     RDKit          3D

 16 17  0  0  0  0  0  0  0  0999 V2000
   -3.6702   31.0421    4.0764 C   0  0  0  0  0  0  0  0  0  0  0  0
   -2.7791   30.3929    3.3151 C   0  0  0  0  0  0  0  0  0  0  0  0
   -1.6474   31.0578    2.8889 N   0  0  0  0  0  0  0  0  0  0  0  0
   -1.1458   30.4822    1.8426 C   0  0  0  0  0  0  0  0  0  0  0  0
   -0.0223   30.9564    1.2423 N   0  0  0  0  0  0  0  0  0  0  0  0
   -0.2001   31.8524    0.3362 C   0  0  0  0  0  0  0  0  0  0  0  0
    0.9430   32.4869   -0.3881 C   0  0  0  0  0  0  0  0  0  0  0  0
   -1.4144   32.2860   -0.0508 O   0  0  0  0  0  0  0  0  0  0  0  0
   -1.9245   29.0175    1.2907 S   0  0  0  0  0  0  0  0  0  0  0  0
   -2.9419   29.0622    2.7165 C   0  0  0  0  0  0  0  0  0  0  0  0
   -3.6386   27.9998    3.1959 C   0  0  0  0  0  0  0  0  0  0  0  0
   -3.7557   26.7289    2.4428 C   0  0  0  0  0  0  0  0  0  0  0  0
   -4.4052   25.6609    2.9454 C   0  0  0  0  0  0  0  0  0  0  0  0
   -5.0017   25.7146    4.2633 C   0  0  0  0  0  0  0  0  0  0  0  0
   -4.9076   26.8603    4.9517 C   0  0  0  0  0  0  0  0  0  0  0  0
   -4.2866   27.9751    4.4367 N   0  0  0  0  0  0  0  0  0  0  0  0
  1  2  2  3
  2  3  1  0
  3  4  2  0
  4  5  1  0
  5  6  2  3
  6  7  1  0
  6  8  1  0
  4  9  1  0
  9 10  1  0
 10 11  2  3
 11 12  1  0
 12 13  2  0
 13 14  1  0
 14 15  2  0
 15 16  1  0
 10  2  1  0
 16 11  1  0
M  END
>  <Energy>  (389) 
-17.211726852052571

>  <Energy_Delta>  (389) 
1.7393740400081761

>  <std_smi>  (389) 
CC(=O)Nc1nc(C)c(-c2ccccn2)s1

>  <enum_smi>  (389) 
C=c1nc(N=C(C)O)sc1=C1C=CC=CN1

>  <enum_code>  (389) 
T

>  <parent_uuid>  (389) 
38ce1dff-635b-49bf-aa41-0dda23e4ce8b

>  <o3da_score>  (389) 
87.516064396570926

>  <o3da_score_rel>  (389) 
0.34841416808622733

>  <o3da_align>  (389) 
0.51745998296442963

>  <RMSD>  (389) 
0.69644791303285614

>  <CONVERGED>  (389) 
0

>  <ENERGY>  (389) 
-9.3468224866535436

$$$$
72458705-7442-45b4-94c0-48c928a560cd
     RDKit          3D

 16 17  0  0  0  0  0  0  0  0999 V2000
   -2.7358   26.7524    4.8484 C   0  0  0  0  0  0  0  0  0  0  0  0
   -4.0732   26.7561    4.7851 C   0  0  0  0  0  0  0  0  0  0  0  0
   -4.7550   27.9237    5.0789 N   0  0  0  0  0  0  0  0  0  0  0  0
   -5.9391   27.9034    4.5587 C   0  0  0  0  0  0  0  0  0  0  0  0
   -6.7558   28.9884    4.7231 N   0  0  0  0  0  0  0  0  0  0  0  0
   -8.0500   29.2163    4.2811 C   0  0  0  0  0  0  0  0  0  0  0  0
   -8.5903   30.5473    4.7389 C   0  0  0  0  0  0  0  0  0  0  0  0
   -8.7133   28.4758    3.5659 O   0  0  0  0  0  0  0  0  0  0  0  0
   -6.4130   26.4786    3.6971 S   0  0  0  0  0  0  0  0  0  0  0  0
   -4.9363   25.7005    4.2503 C   0  0  0  0  0  0  0  0  0  0  0  0
   -4.8125   24.3510    4.2228 C   0  0  0  0  0  0  0  0  0  0  0  0
   -3.6986   23.6137    4.8474 C   0  0  0  0  0  0  0  0  0  0  0  0
   -3.5982   22.2726    4.7536 C   0  0  0  0  0  0  0  0  0  0  0  0
   -4.5951   21.5044    4.0339 C   0  0  0  0  0  0  0  0  0  0  0  0
   -5.6399   22.1603    3.5092 C   0  0  0  0  0  0  0  0  0  0  0  0
   -5.7664   23.5222    3.6219 N   0  0  0  0  0  0  0  0  0  0  0  0
  1  2  2  3
  2  3  1  0
  3  4  2  0
  4  5  1  0
  5  6  1  0
  6  7  1  0
  6  8  2  0
  4  9  1  0
  9 10  1  0
 10 11  2  3
 11 12  1  0
 12 13  2  0
 13 14  1  0
 14 15  2  0
 15 16  1  0
 10  2  1  0
 16 11  1  0
M  END
>  <Energy>  (390) 
-24.709778603546848

>  <Energy_Delta>  (390) 
0

>  <std_smi>  (390) 
CC(=O)Nc1nc(C)c(-c2ccccn2)s1

>  <enum_smi>  (390) 
C=c1nc(NC(C)=O)sc1=C1C=CC=CN1

>  <enum_code>  (390) 
T

>  <parent_uuid>  (390) 
38ce1dff-635b-49bf-aa41-0dda23e4ce8b

>  <o3da_score>  (390) 
67.715746277782131

>  <o3da_score_rel>  (390) 
0.26958622475070915

>  <o3da_align>  (390) 
0.40625368402941903

>  <RMSD>  (390) 
6.8342593168205679e-05

>  <CONVERGED>  (390) 
0

>  <ENERGY>  (390) 
-24.709778603669811

$$$$
72458705-7442-45b4-94c0-48c928a560cd
     RDKit          3D

 16 17  0  0  0  0  0  0  0  0999 V2000
   -5.6297   27.8936    5.2801 C   0  0  0  0  0  0  0  0  0  0  0  0
   -4.4340   28.1103    4.7178 C   0  0  0  0  0  0  0  0  0  0  0  0
   -3.9642   29.4081    4.6205 N   0  0  0  0  0  0  0  0  0  0  0  0
   -3.0628   29.4985    3.6973 C   0  0  0  0  0  0  0  0  0  0  0  0
   -2.4974   30.7168    3.4377 N   0  0  0  0  0  0  0  0  0  0  0  0
   -1.5223   31.0800    2.5214 C   0  0  0  0  0  0  0  0  0  0  0  0
   -1.1597   32.5405    2.6128 C   0  0  0  0  0  0  0  0  0  0  0  0
   -1.0067   30.3507    1.6834 O   0  0  0  0  0  0  0  0  0  0  0  0
   -2.6220   28.0483    2.8609 S   0  0  0  0  0  0  0  0  0  0  0  0
   -3.6047   27.1390    4.0009 C   0  0  0  0  0  0  0  0  0  0  0  0
   -3.4332   25.8028    4.1510 C   0  0  0  0  0  0  0  0  0  0  0  0
   -4.0693   25.0059    5.2163 C   0  0  0  0  0  0  0  0  0  0  0  0
   -3.9016   23.6706    5.2958 C   0  0  0  0  0  0  0  0  0  0  0  0
   -3.0775   22.9696    4.3306 C   0  0  0  0  0  0  0  0  0  0  0  0
   -2.4518   23.6927    3.3911 C   0  0  0  0  0  0  0  0  0  0  0  0
   -2.5938   25.0558    3.3173 N   0  0  0  0  0  0  0  0  0  0  0  0
  1  2  2  3
  2  3  1  0
  3  4  2  0
  4  5  1  0
  5  6  1  0
  6  7  1  0
  6  8  2  0
  4  9  1  0
  9 10  1  0
 10 11  2  3
 11 12  1  0
 12 13  2  0
 13 14  1  0
 14 15  2  0
 15 16  1  0
 10  2  1  0
 16 11  1  0
M  END
>  <Energy>  (391) 
-24.701854922069316

>  <Energy_Delta>  (391) 
0.0079236814775320852

>  <std_smi>  (391) 
CC(=O)Nc1nc(C)c(-c2ccccn2)s1

>  <enum_smi>  (391) 
C=c1nc(NC(C)=O)sc1=C1C=CC=CN1

>  <enum_code>  (391) 
T

>  <parent_uuid>  (391) 
38ce1dff-635b-49bf-aa41-0dda23e4ce8b

>  <o3da_score>  (391) 
66.991243002259566

>  <o3da_score_rel>  (391) 
0.2667018719435138

>  <o3da_align>  (391) 
0.50327630891602881

>  <RMSD>  (391) 
0.035152714623608229

>  <CONVERGED>  (391) 
0

>  <ENERGY>  (391) 
-24.709778603675435

$$$$
72458705-7442-45b4-94c0-48c928a560cd
     RDKit          3D

 16 17  0  0  0  0  0  0  0  0999 V2000
   -5.8270   28.3713    4.9224 C   0  0  0  0  0  0  0  0  0  0  0  0
   -4.6124   27.8386    4.7350 C   0  0  0  0  0  0  0  0  0  0  0  0
   -4.4161   26.4961    5.0008 N   0  0  0  0  0  0  0  0  0  0  0  0
   -3.1599   26.2498    5.1846 C   0  0  0  0  0  0  0  0  0  0  0  0
   -2.7707   24.9737    5.4867 N   0  0  0  0  0  0  0  0  0  0  0  0
   -1.5094   24.4482    5.7222 C   0  0  0  0  0  0  0  0  0  0  0  0
   -1.5421   22.9630    5.9790 C   0  0  0  0  0  0  0  0  0  0  0  0
   -0.4585   25.0752    5.7671 O   0  0  0  0  0  0  0  0  0  0  0  0
   -2.0523   27.5683    5.0151 S   0  0  0  0  0  0  0  0  0  0  0  0
   -3.3716   28.5640    4.4327 C   0  0  0  0  0  0  0  0  0  0  0  0
   -3.2127   29.7201    3.7387 C   0  0  0  0  0  0  0  0  0  0  0  0
   -1.8862   30.3575    3.5649 C   0  0  0  0  0  0  0  0  0  0  0  0
   -1.7250   31.4781    2.8348 C   0  0  0  0  0  0  0  0  0  0  0  0
   -2.8548   32.0943    2.1721 C   0  0  0  0  0  0  0  0  0  0  0  0
   -4.0605   31.5303    2.3258 C   0  0  0  0  0  0  0  0  0  0  0  0
   -4.2513   30.4101    3.1021 N   0  0  0  0  0  0  0  0  0  0  0  0
  1  2  2  3
  2  3  1  0
  3  4  2  0
  4  5  1  0
  5  6  1  0
  6  7  1  0
  6  8  2  0
  4  9  1  0
  9 10  1  0
 10 11  2  3
 11 12  1  0
 12 13  2  0
 13 14  1  0
 14 15  2  0
 15 16  1  0
 10  2  1  0
 16 11  1  0
M  END
>  <Energy>  (392) 
-22.782306322855664

>  <Energy_Delta>  (392) 
1.9274722806911839

>  <std_smi>  (392) 
CC(=O)Nc1nc(C)c(-c2ccccn2)s1

>  <enum_smi>  (392) 
C=c1nc(NC(C)=O)sc1=C1C=CC=CN1

>  <enum_code>  (392) 
T

>  <parent_uuid>  (392) 
38ce1dff-635b-49bf-aa41-0dda23e4ce8b

>  <o3da_score>  (392) 
68.354019126266039

>  <o3da_score_rel>  (392) 
0.27212728169893796

>  <o3da_align>  (392) 
0.38748304182089632

>  <RMSD>  (392) 
7.4782905273877497e-05

>  <CONVERGED>  (392) 
0

>  <ENERGY>  (392) 
-22.782306322915236

$$$$
72458705-7442-45b4-94c0-48c928a560cd
     RDKit          3D

 16 17  0  0  0  0  0  0  0  0999 V2000
   -6.3873   28.5576    4.2672 C   0  0  0  0  0  0  0  0  0  0  0  0
   -5.0873   28.6802    3.9683 C   0  0  0  0  0  0  0  0  0  0  0  0
   -4.6453   29.8287    3.3381 N   0  0  0  0  0  0  0  0  0  0  0  0
   -3.3719   29.9771    3.5086 C   0  0  0  0  0  0  0  0  0  0  0  0
   -2.7546   31.0762    2.9773 N   0  0  0  0  0  0  0  0  0  0  0  0
   -1.4242   31.4656    3.0086 C   0  0  0  0  0  0  0  0  0  0  0  0
   -1.1790   32.7425    2.2455 C   0  0  0  0  0  0  0  0  0  0  0  0
   -0.5157   30.8990    3.6029 O   0  0  0  0  0  0  0  0  0  0  0  0
   -2.5337   28.7486    4.3929 S   0  0  0  0  0  0  0  0  0  0  0  0
   -4.0000   27.7888    4.3930 C   0  0  0  0  0  0  0  0  0  0  0  0
   -4.0437   26.4535    4.6351 C   0  0  0  0  0  0  0  0  0  0  0  0
   -2.8597   25.7014    5.1130 C   0  0  0  0  0  0  0  0  0  0  0  0
   -2.8931   24.3685    5.3055 C   0  0  0  0  0  0  0  0  0  0  0  0
   -4.0978   23.6145    5.0306 C   0  0  0  0  0  0  0  0  0  0  0  0
   -5.1768   24.2840    4.6029 C   0  0  0  0  0  0  0  0  0  0  0  0
   -5.1741   25.6507    4.4409 N   0  0  0  0  0  0  0  0  0  0  0  0
  1  2  2  3
  2  3  1  0
  3  4  2  0
  4  5  1  0
  5  6  1  0
  6  7  1  0
  6  8  2  0
  4  9  1  0
  9 10  1  0
 10 11  2  3
 11 12  1  0
 12 13  2  0
 13 14  1  0
 14 15  2  0
 15 16  1  0
 10  2  1  0
 16 11  1  0
M  END
>  <Energy>  (393) 
-22.780166810856677

>  <Energy_Delta>  (393) 
1.9296117926901708

>  <std_smi>  (393) 
CC(=O)Nc1nc(C)c(-c2ccccn2)s1

>  <enum_smi>  (393) 
C=c1nc(NC(C)=O)sc1=C1C=CC=CN1

>  <enum_code>  (393) 
T

>  <parent_uuid>  (393) 
38ce1dff-635b-49bf-aa41-0dda23e4ce8b

>  <o3da_score>  (393) 
67.349413901845239

>  <o3da_score_rel>  (393) 
0.26812780233551992

>  <o3da_align>  (393) 
0.50745043557615421

>  <RMSD>  (393) 
0.037379972872358648

>  <CONVERGED>  (393) 
0

>  <ENERGY>  (393) 
-22.782306322930687

$$$$
72458705-7442-45b4-94c0-48c928a560cd
     RDKit          3D

 16 17  0  0  0  0  0  0  0  0999 V2000
   -1.5644   28.1633    1.8628 C   0  0  0  0  0  0  0  0  0  0  0  0
   -2.4481   28.3477    2.8515 C   0  0  0  0  0  0  0  0  0  0  0  0
   -3.3161   27.3209    3.1702 N   0  0  0  0  0  0  0  0  0  0  0  0
   -3.7721   27.4621    4.3665 C   0  0  0  0  0  0  0  0  0  0  0  0
   -4.6266   26.6451    5.0451 N   0  0  0  0  0  0  0  0  0  0  0  0
   -5.1808   25.4667    4.5813 C   0  0  0  0  0  0  0  0  0  0  0  0
   -6.0610   24.7985    5.6071 C   0  0  0  0  0  0  0  0  0  0  0  0
   -5.0397   24.9850    3.4643 O   0  0  0  0  0  0  0  0  0  0  0  0
   -3.2675   28.8661    5.2654 S   0  0  0  0  0  0  0  0  0  0  0  0
   -2.4991   29.4661    3.7976 C   0  0  0  0  0  0  0  0  0  0  0  0
   -2.1711   30.7755    3.6721 C   0  0  0  0  0  0  0  0  0  0  0  0
   -1.7230   31.3904    2.4089 C   0  0  0  0  0  0  0  0  0  0  0  0
   -1.3591   32.6866    2.3433 C   0  0  0  0  0  0  0  0  0  0  0  0
   -1.4016   33.5272    3.5234 C   0  0  0  0  0  0  0  0  0  0  0  0
   -1.8612   32.9922    4.6635 C   0  0  0  0  0  0  0  0  0  0  0  0
   -2.2651   31.6819    4.7347 N   0  0  0  0  0  0  0  0  0  0  0  0
  1  2  2  3
  2  3  1  0
  3  4  2  0
  4  5  1  0
  5  6  1  0
  6  7  1  0
  6  8  2  0
  4  9  1  0
  9 10  1  0
 10 11  2  3
 11 12  1  0
 12 13  2  0
 13 14  1  0
 14 15  2  0
 15 16  1  0
 10  2  1  0
 16 11  1  0
M  END
>  <Energy>  (394) 
-22.406121078697854

>  <Energy_Delta>  (394) 
2.3036575248489939

>  <std_smi>  (394) 
CC(=O)Nc1nc(C)c(-c2ccccn2)s1

>  <enum_smi>  (394) 
C=c1nc(NC(C)=O)sc1=C1C=CC=CN1

>  <enum_code>  (394) 
T

>  <parent_uuid>  (394) 
38ce1dff-635b-49bf-aa41-0dda23e4ce8b

>  <o3da_score>  (394) 
69.582980071114036

>  <o3da_score_rel>  (394) 
0.27701995378333827

>  <o3da_align>  (394) 
0.60739214789178042

>  <RMSD>  (394) 
0.04273549942677965

>  <CONVERGED>  (394) 
0

>  <ENERGY>  (394) 
-22.386611497542539

$$$$
72458705-7442-45b4-94c0-48c928a560cd
     RDKit          3D

 16 17  0  0  0  0  0  0  0  0999 V2000
   -3.0988   30.5643    4.4127 C   0  0  0  0  0  0  0  0  0  0  0  0
   -2.3061   30.0741    3.4516 C   0  0  0  0  0  0  0  0  0  0  0  0
   -1.5756   30.9540    2.6761 N   0  0  0  0  0  0  0  0  0  0  0  0
   -1.2347   30.4065    1.5612 C   0  0  0  0  0  0  0  0  0  0  0  0
   -0.5328   30.9581    0.5312 N   0  0  0  0  0  0  0  0  0  0  0  0
   -0.0434   32.2493    0.4681 C   0  0  0  0  0  0  0  0  0  0  0  0
    0.7546   32.5044   -0.7855 C   0  0  0  0  0  0  0  0  0  0  0  0
   -0.2382   33.1428    1.2826 O   0  0  0  0  0  0  0  0  0  0  0  0
   -1.6909   28.7457    1.3013 S   0  0  0  0  0  0  0  0  0  0  0  0
   -2.2456   28.6901    2.9728 C   0  0  0  0  0  0  0  0  0  0  0  0
   -2.4331   27.5040    3.6022 C   0  0  0  0  0  0  0  0  0  0  0  0
   -2.6900   27.3759    5.0486 C   0  0  0  0  0  0  0  0  0  0  0  0
   -2.9206   26.1782    5.6225 C   0  0  0  0  0  0  0  0  0  0  0  0
   -2.9192   24.9653    4.8287 C   0  0  0  0  0  0  0  0  0  0  0  0
   -2.6309   25.0654    3.5234 C   0  0  0  0  0  0  0  0  0  0  0  0
   -2.3619   26.2760    2.9341 N   0  0  0  0  0  0  0  0  0  0  0  0
  1  2  2  3
  2  3  1  0
  3  4  2  0
  4  5  1  0
  5  6  1  0
  6  7  1  0
  6  8  2  0
  4  9  1  0
  9 10  1  0
 10 11  2  3
 11 12  1  0
 12 13  2  0
 13 14  1  0
 14 15  2  0
 15 16  1  0
 10  2  1  0
 16 11  1  0
M  END
>  <Energy>  (395) 
-22.40612107865007

>  <Energy_Delta>  (395) 
2.3036575248967779

>  <std_smi>  (395) 
CC(=O)Nc1nc(C)c(-c2ccccn2)s1

>  <enum_smi>  (395) 
C=c1nc(NC(C)=O)sc1=C1C=CC=CN1

>  <enum_code>  (395) 
T

>  <parent_uuid>  (395) 
38ce1dff-635b-49bf-aa41-0dda23e4ce8b

>  <o3da_score>  (395) 
86.21294802553156

>  <o3da_score_rel>  (395) 
0.34322627247568144

>  <o3da_align>  (395) 
0.37995388671920105

>  <RMSD>  (395) 
5.2931072432093281e-05

>  <CONVERGED>  (395) 
0

>  <ENERGY>  (395) 
-22.406121078772369

$$$$
72458705-7442-45b4-94c0-48c928a560cd
     RDKit          3D

 16 17  0  0  0  0  0  0  0  0999 V2000
   -3.9003   30.9631    3.9536 C   0  0  0  0  0  0  0  0  0  0  0  0
   -3.0628   30.3389    3.1152 C   0  0  0  0  0  0  0  0  0  0  0  0
   -2.0538   31.0625    2.5109 N   0  0  0  0  0  0  0  0  0  0  0  0
   -1.6321   30.4584    1.4547 C   0  0  0  0  0  0  0  0  0  0  0  0
   -0.6683   30.8626    0.5799 N   0  0  0  0  0  0  0  0  0  0  0  0
    0.0625   32.0339    0.6448 C   0  0  0  0  0  0  0  0  0  0  0  0
    1.0893   32.1367   -0.4545 C   0  0  0  0  0  0  0  0  0  0  0  0
   -0.0867   32.9416    1.4533 O   0  0  0  0  0  0  0  0  0  0  0  0
   -2.3422   28.9172    1.0669 S   0  0  0  0  0  0  0  0  0  0  0  0
   -3.1880   28.9665    2.6047 C   0  0  0  0  0  0  0  0  0  0  0  0
   -3.7326   27.8830    3.2156 C   0  0  0  0  0  0  0  0  0  0  0  0
   -3.8349   26.5664    2.5431 C   0  0  0  0  0  0  0  0  0  0  0  0
   -4.3285   25.4823    3.1724 C   0  0  0  0  0  0  0  0  0  0  0  0
   -4.7641   25.5651    4.5505 C   0  0  0  0  0  0  0  0  0  0  0  0
   -4.6834   26.7520    5.1669 C   0  0  0  0  0  0  0  0  0  0  0  0
   -4.2221   27.8792    4.5266 N   0  0  0  0  0  0  0  0  0  0  0  0
  1  2  2  3
  2  3  1  0
  3  4  2  0
  4  5  1  0
  5  6  1  0
  6  7  1  0
  6  8  2  0
  4  9  1  0
  9 10  1  0
 10 11  2  3
 11 12  1  0
 12 13  2  0
 13 14  1  0
 14 15  2  0
 15 16  1  0
 10  2  1  0
 16 11  1  0
M  END
>  <Energy>  (396) 
-21.158944209752349

>  <Energy_Delta>  (396) 
3.5508343937944993

>  <std_smi>  (396) 
CC(=O)Nc1nc(C)c(-c2ccccn2)s1

>  <enum_smi>  (396) 
C=c1nc(NC(C)=O)sc1=C1C=CC=CN1

>  <enum_code>  (396) 
T

>  <parent_uuid>  (396) 
38ce1dff-635b-49bf-aa41-0dda23e4ce8b

>  <o3da_score>  (396) 
90.782432536877195

>  <o3da_score_rel>  (396) 
0.36141805424261575

>  <o3da_align>  (396) 
0.5521394523914771

>  <RMSD>  (396) 
6.9282650514267079e-05

>  <CONVERGED>  (396) 
0

>  <ENERGY>  (396) 
-21.158944209886908

$$$$
72458705-7442-45b4-94c0-48c928a560cd
     RDKit          3D

 16 17  0  0  0  0  0  0  0  0999 V2000
   -2.0528   28.1881    0.0801 C   0  0  0  0  0  0  0  0  0  0  0  0
   -1.7795   29.1461    0.9755 C   0  0  0  0  0  0  0  0  0  0  0  0
   -0.9057   30.1583    0.6311 N   0  0  0  0  0  0  0  0  0  0  0  0
   -1.0772   31.1839    1.3908 C   0  0  0  0  0  0  0  0  0  0  0  0
   -0.4281   32.3816    1.3502 N   0  0  0  0  0  0  0  0  0  0  0  0
    0.5620   32.7508    0.4593 C   0  0  0  0  0  0  0  0  0  0  0  0
    1.1044   34.1301    0.7364 C   0  0  0  0  0  0  0  0  0  0  0  0
    0.9678   32.0945   -0.4917 O   0  0  0  0  0  0  0  0  0  0  0  0
   -2.2661   31.0628    2.6564 S   0  0  0  0  0  0  0  0  0  0  0  0
   -2.4463   29.3601    2.2675 C   0  0  0  0  0  0  0  0  0  0  0  0
   -3.0005   28.4385    3.0965 C   0  0  0  0  0  0  0  0  0  0  0  0
   -3.6909   28.8197    4.3511 C   0  0  0  0  0  0  0  0  0  0  0  0
   -4.1930   27.8978    5.1955 C   0  0  0  0  0  0  0  0  0  0  0  0
   -4.0568   26.4852    4.9096 C   0  0  0  0  0  0  0  0  0  0  0  0
   -3.4410   26.1283    3.7744 C   0  0  0  0  0  0  0  0  0  0  0  0
   -2.9600   27.0566    2.8798 N   0  0  0  0  0  0  0  0  0  0  0  0
  1  2  2  3
  2  3  1  0
  3  4  2  0
  4  5  1  0
  5  6  1  0
  6  7  1  0
  6  8  2  0
  4  9  1  0
  9 10  1  0
 10 11  2  3
 11 12  1  0
 12 13  2  0
 13 14  1  0
 14 15  2  0
 15 16  1  0
 10  2  1  0
 16 11  1  0
M  END
>  <Energy>  (397) 
-21.15894420967561

>  <Energy_Delta>  (397) 
3.5508343938712379

>  <std_smi>  (397) 
CC(=O)Nc1nc(C)c(-c2ccccn2)s1

>  <enum_smi>  (397) 
C=c1nc(NC(C)=O)sc1=C1C=CC=CN1

>  <enum_code>  (397) 
T

>  <parent_uuid>  (397) 
38ce1dff-635b-49bf-aa41-0dda23e4ce8b

>  <o3da_score>  (397) 
78.084393209942405

>  <o3da_score_rel>  (397) 
0.31086531470930634

>  <o3da_align>  (397) 
0.64763939369389756

>  <RMSD>  (397) 
5.7161817701652615e-05

>  <CONVERGED>  (397) 
0

>  <ENERGY>  (397) 
-21.158944209863591

$$$$
fbdf819c-0d26-4eef-8bed-1ee5225079fe
     RDKit          3D

 16 17  0  0  0  0  0  0  0  0999 V2000
   -3.0795   27.2355    2.1681 C   0  0  0  0  0  0  0  0  0  0  0  0
   -2.6120   28.4855    2.2801 C   0  0  0  0  0  0  0  0  0  0  0  0
   -1.7885   28.9646    1.2744 N   0  0  0  0  0  0  0  0  0  0  0  0
   -1.4148   30.1765    1.5115 C   0  0  0  0  0  0  0  0  0  0  0  0
   -0.5931   30.8014    0.6139 N   0  0  0  0  0  0  0  0  0  0  0  0
   -0.0483   32.0763    0.6247 C   0  0  0  0  0  0  0  0  0  0  0  0
    0.8433   32.3323   -0.5638 C   0  0  0  0  0  0  0  0  0  0  0  0
   -0.2599   32.9496    1.4569 O   0  0  0  0  0  0  0  0  0  0  0  0
   -1.9807   30.9231    2.9581 S   0  0  0  0  0  0  0  0  0  0  0  0
   -2.8609   29.4567    3.3640 C   0  0  0  0  0  0  0  0  0  0  0  0
   -3.6123   29.3184    4.4891 C   0  0  0  0  0  0  0  0  0  0  0  0
   -3.7585   30.3920    5.4766 C   0  0  0  0  0  0  0  0  0  0  0  0
   -4.4936   30.2740    6.5890 C   0  0  0  0  0  0  0  0  0  0  0  0
   -5.2240   29.0227    6.9020 C   0  0  0  0  0  0  0  0  0  0  0  0
   -5.0000   27.9989    5.8230 C   0  0  0  0  0  0  0  0  0  0  0  0
   -4.2816   28.1370    4.7520 N   0  0  0  0  0  0  0  0  0  0  0  0
  1  2  2  3
  2  3  1  0
  3  4  2  0
  4  5  1  0
  5  6  1  0
  6  7  1  0
  6  8  2  0
  4  9  1  0
  9 10  1  0
 10 11  2  3
 11 12  1  0
 12 13  2  0
 13 14  1  0
 14 15  1  0
 15 16  2  0
 10  2  1  0
 16 11  1  0
M  END
>  <Energy>  (398) 
-15.180354196087343

>  <Energy_Delta>  (398) 
0

>  <std_smi>  (398) 
CC(=O)Nc1nc(C)c(-c2ccccn2)s1

>  <enum_smi>  (398) 
C=c1nc(NC(C)=O)sc1=C1C=CCC=N1

>  <enum_code>  (398) 
T

>  <parent_uuid>  (398) 
38ce1dff-635b-49bf-aa41-0dda23e4ce8b

>  <o3da_score>  (398) 
91.62157992504298

>  <o3da_score_rel>  (398) 
0.36475882191956088

>  <o3da_align>  (398) 
0.37119086571631849

>  <RMSD>  (398) 
6.5135851087807156e-05

>  <CONVERGED>  (398) 
0

>  <ENERGY>  (398) 
-15.180354196167681

$$$$
fbdf819c-0d26-4eef-8bed-1ee5225079fe
     RDKit          3D

 16 17  0  0  0  0  0  0  0  0999 V2000
   -3.0768   29.9701    4.0885 C   0  0  0  0  0  0  0  0  0  0  0  0
   -2.4294   31.1104    3.8163 C   0  0  0  0  0  0  0  0  0  0  0  0
   -1.6905   31.1730    2.6478 N   0  0  0  0  0  0  0  0  0  0  0  0
   -1.1306   32.3206    2.5064 C   0  0  0  0  0  0  0  0  0  0  0  0
   -0.3312   32.7471    1.4876 N   0  0  0  0  0  0  0  0  0  0  0  0
    0.0484   32.0183    0.3760 C   0  0  0  0  0  0  0  0  0  0  0  0
    0.9873   32.7834   -0.5223 C   0  0  0  0  0  0  0  0  0  0  0  0
   -0.3299   30.8928    0.0766 O   0  0  0  0  0  0  0  0  0  0  0  0
   -1.3909   33.5071    3.7435 S   0  0  0  0  0  0  0  0  0  0  0  0
   -2.3956   32.3526    4.6153 C   0  0  0  0  0  0  0  0  0  0  0  0
   -2.9959   32.6276    5.8046 C   0  0  0  0  0  0  0  0  0  0  0  0
   -2.8631   33.9240    6.4761 C   0  0  0  0  0  0  0  0  0  0  0  0
   -3.4468   34.2098    7.6465 C   0  0  0  0  0  0  0  0  0  0  0  0
   -4.2840   33.2124    8.3559 C   0  0  0  0  0  0  0  0  0  0  0  0
   -4.3468   31.9283    7.5754 C   0  0  0  0  0  0  0  0  0  0  0  0
   -3.7708   31.6763    6.4413 N   0  0  0  0  0  0  0  0  0  0  0  0
  1  2  2  3
  2  3  1  0
  3  4  2  0
  4  5  1  0
  5  6  1  0
  6  7  1  0
  6  8  2  0
  4  9  1  0
  9 10  1  0
 10 11  2  3
 11 12  1  0
 12 13  2  0
 13 14  1  0
 14 15  1  0
 15 16  2  0
 10  2  1  0
 16 11  1  0
M  END
>  <Energy>  (399) 
-12.481816885821482

>  <Energy_Delta>  (399) 
2.698537310265861

>  <std_smi>  (399) 
CC(=O)Nc1nc(C)c(-c2ccccn2)s1

>  <enum_smi>  (399) 
C=c1nc(NC(C)=O)sc1=C1C=CCC=N1

>  <enum_code>  (399) 
T

>  <parent_uuid>  (399) 
38ce1dff-635b-49bf-aa41-0dda23e4ce8b

>  <o3da_score>  (399) 
78.612848109289402

>  <o3da_score_rel>  (399) 
0.3129691704459257

>  <o3da_align>  (399) 
0.36749387975401454

>  <RMSD>  (399) 
0.045404169276269224

>  <CONVERGED>  (399) 
0

>  <ENERGY>  (399) 
-12.481816885824724

$$$$
fbdf819c-0d26-4eef-8bed-1ee5225079fe
     RDKit          3D

 16 17  0  0  0  0  0  0  0  0999 V2000
   -3.5931   23.4512    4.1162 C   0  0  0  0  0  0  0  0  0  0  0  0
   -4.7496   24.1243    4.0590 C   0  0  0  0  0  0  0  0  0  0  0  0
   -5.9092   23.4364    3.7510 N   0  0  0  0  0  0  0  0  0  0  0  0
   -6.8099   24.2468    3.2966 C   0  0  0  0  0  0  0  0  0  0  0  0
   -8.0190   23.7378    2.9077 N   0  0  0  0  0  0  0  0  0  0  0  0
   -9.1398   24.3662    2.3863 C   0  0  0  0  0  0  0  0  0  0  0  0
  -10.2494   23.3943    2.0739 C   0  0  0  0  0  0  0  0  0  0  0  0
   -9.2850   25.5687    2.2087 O   0  0  0  0  0  0  0  0  0  0  0  0
   -6.4136   25.9279    3.2226 S   0  0  0  0  0  0  0  0  0  0  0  0
   -4.9292   25.5796    4.1010 C   0  0  0  0  0  0  0  0  0  0  0  0
   -4.2299   26.5505    4.7408 C   0  0  0  0  0  0  0  0  0  0  0  0
   -3.1286   26.2715    5.6576 C   0  0  0  0  0  0  0  0  0  0  0  0
   -2.3310   27.2286    6.1480 C   0  0  0  0  0  0  0  0  0  0  0  0
   -2.5391   28.6561    5.7946 C   0  0  0  0  0  0  0  0  0  0  0  0
   -3.8392   28.8253    5.0542 C   0  0  0  0  0  0  0  0  0  0  0  0
   -4.5940   27.8786    4.5907 N   0  0  0  0  0  0  0  0  0  0  0  0
  1  2  2  3
  2  3  1  0
  3  4  2  0
  4  5  1  0
  5  6  1  0
  6  7  1  0
  6  8  2  0
  4  9  1  0
  9 10  1  0
 10 11  2  3
 11 12  1  0
 12 13  2  0
 13 14  1  0
 14 15  1  0
 15 16  2  0
 10  2  1  0
 16 11  1  0
M  END
>  <Energy>  (400) 
-10.625171707749107

>  <Energy_Delta>  (400) 
4.5551824883382359

>  <std_smi>  (400) 
CC(=O)Nc1nc(C)c(-c2ccccn2)s1

>  <enum_smi>  (400) 
C=c1nc(NC(C)=O)sc1=C1C=CCC=N1

>  <enum_code>  (400) 
T

>  <parent_uuid>  (400) 
38ce1dff-635b-49bf-aa41-0dda23e4ce8b

>  <o3da_score>  (400) 
69.928911372915735

>  <o3da_score_rel>  (400) 
0.2783971565582033

>  <o3da_align>  (400) 
0.36501575367236511

>  <RMSD>  (400) 
0.043616532121477807

>  <CONVERGED>  (400) 
0

>  <ENERGY>  (400) 
-10.601989933261839

$$$$
fbdf819c-0d26-4eef-8bed-1ee5225079fe
     RDKit          3D

 16 17  0  0  0  0  0  0  0  0999 V2000
   -6.3267   28.6292    4.4666 C   0  0  0  0  0  0  0  0  0  0  0  0
   -5.0403   28.7167    4.1038 C   0  0  0  0  0  0  0  0  0  0  0  0
   -4.5864   29.8883    3.5257 N   0  0  0  0  0  0  0  0  0  0  0  0
   -3.3034   29.9915    3.6582 C   0  0  0  0  0  0  0  0  0  0  0  0
   -2.6771   31.1050    3.1686 N   0  0  0  0  0  0  0  0  0  0  0  0
   -1.3386   31.4672    3.1780 C   0  0  0  0  0  0  0  0  0  0  0  0
   -1.0895   32.7647    2.4516 C   0  0  0  0  0  0  0  0  0  0  0  0
   -0.4258   30.8687    3.7325 O   0  0  0  0  0  0  0  0  0  0  0  0
   -2.4690   28.6912    4.4343 S   0  0  0  0  0  0  0  0  0  0  0  0
   -3.9665   27.7674    4.4161 C   0  0  0  0  0  0  0  0  0  0  0  0
   -3.9797   26.4196    4.5717 C   0  0  0  0  0  0  0  0  0  0  0  0
   -5.1653   25.5991    4.3427 C   0  0  0  0  0  0  0  0  0  0  0  0
   -5.2244   24.3013    4.6665 C   0  0  0  0  0  0  0  0  0  0  0  0
   -4.0579   23.6075    5.2699 C   0  0  0  0  0  0  0  0  0  0  0  0
   -2.8413   24.4931    5.2184 C   0  0  0  0  0  0  0  0  0  0  0  0
   -2.8123   25.7493    4.8988 N   0  0  0  0  0  0  0  0  0  0  0  0
  1  2  2  3
  2  3  1  0
  3  4  2  0
  4  5  1  0
  5  6  1  0
  6  7  1  0
  6  8  2  0
  4  9  1  0
  9 10  1  0
 10 11  2  3
 11 12  1  0
 12 13  2  0
 13 14  1  0
 14 15  1  0
 15 16  2  0
 10  2  1  0
 16 11  1  0
M  END
>  <Energy>  (401) 
-10.601989933029422

>  <Energy_Delta>  (401) 
4.5783642630579209

>  <std_smi>  (401) 
CC(=O)Nc1nc(C)c(-c2ccccn2)s1

>  <enum_smi>  (401) 
C=c1nc(NC(C)=O)sc1=C1C=CCC=N1

>  <enum_code>  (401) 
T

>  <parent_uuid>  (401) 
38ce1dff-635b-49bf-aa41-0dda23e4ce8b

>  <o3da_score>  (401) 
73.59536187340268

>  <o3da_score_rel>  (401) 
0.29299382872078905

>  <o3da_align>  (401) 
0.57284648756384104

>  <RMSD>  (401) 
0.043600269372442275

>  <CONVERGED>  (401) 
0

>  <ENERGY>  (401) 
-10.625171707900108

$$$$
fbdf819c-0d26-4eef-8bed-1ee5225079fe
     RDKit          3D

 16 17  0  0  0  0  0  0  0  0999 V2000
   -1.7511   31.2583    4.8636 C   0  0  0  0  0  0  0  0  0  0  0  0
   -2.1344   30.3470    3.9602 C   0  0  0  0  0  0  0  0  0  0  0  0
   -3.0306   29.3667    4.3411 N   0  0  0  0  0  0  0  0  0  0  0  0
   -2.9535   28.3506    3.5528 C   0  0  0  0  0  0  0  0  0  0  0  0
   -3.6512   27.1815    3.6124 N   0  0  0  0  0  0  0  0  0  0  0  0
   -4.5981   26.8327    4.5564 C   0  0  0  0  0  0  0  0  0  0  0  0
   -5.1506   25.4471    4.3365 C   0  0  0  0  0  0  0  0  0  0  0  0
   -5.0097   27.5360    5.4708 O   0  0  0  0  0  0  0  0  0  0  0  0
   -1.8380   28.4390    2.2221 S   0  0  0  0  0  0  0  0  0  0  0  0
   -1.5711   30.1341    2.6216 C   0  0  0  0  0  0  0  0  0  0  0  0
   -1.0317   31.0001    1.7275 C   0  0  0  0  0  0  0  0  0  0  0  0
   -1.0011   32.4447    1.9334 C   0  0  0  0  0  0  0  0  0  0  0  0
   -0.3167   33.2776    1.1395 C   0  0  0  0  0  0  0  0  0  0  0  0
    0.4476   32.7693   -0.0275 C   0  0  0  0  0  0  0  0  0  0  0  0
    0.1307   31.3164   -0.2653 C   0  0  0  0  0  0  0  0  0  0  0  0
   -0.5372   30.5298    0.5206 N   0  0  0  0  0  0  0  0  0  0  0  0
  1  2  2  3
  2  3  1  0
  3  4  2  0
  4  5  1  0
  5  6  1  0
  6  7  1  0
  6  8  2  0
  4  9  1  0
  9 10  1  0
 10 11  2  3
 11 12  1  0
 12 13  2  0
 13 14  1  0
 14 15  1  0
 15 16  2  0
 10  2  1  0
 16 11  1  0
M  END
>  <Energy>  (402) 
-10.594014223208585

>  <Energy_Delta>  (402) 
4.5863399728787577

>  <std_smi>  (402) 
CC(=O)Nc1nc(C)c(-c2ccccn2)s1

>  <enum_smi>  (402) 
C=c1nc(NC(C)=O)sc1=C1C=CCC=N1

>  <enum_code>  (402) 
T

>  <parent_uuid>  (402) 
38ce1dff-635b-49bf-aa41-0dda23e4ce8b

>  <o3da_score>  (402) 
74.792643250035013

>  <o3da_score_rel>  (402) 
0.29776037984121206

>  <o3da_align>  (402) 
0.61665171435899002

>  <RMSD>  (402) 
0.039859777246037752

>  <CONVERGED>  (402) 
0

>  <ENERGY>  (402) 
-10.578644701419794

$$$$
fbdf819c-0d26-4eef-8bed-1ee5225079fe
     RDKit          3D

 16 17  0  0  0  0  0  0  0  0999 V2000
   -4.6156   27.6665    4.9001 C   0  0  0  0  0  0  0  0  0  0  0  0
   -4.0689   26.4532    4.7497 C   0  0  0  0  0  0  0  0  0  0  0  0
   -2.7574   26.2599    5.1395 N   0  0  0  0  0  0  0  0  0  0  0  0
   -2.5293   25.0111    5.3591 C   0  0  0  0  0  0  0  0  0  0  0  0
   -1.3719   24.4259    5.7779 N   0  0  0  0  0  0  0  0  0  0  0  0
   -0.1819   25.0658    6.0671 C   0  0  0  0  0  0  0  0  0  0  0  0
    0.9177   24.1022    6.4355 C   0  0  0  0  0  0  0  0  0  0  0  0
    0.0105   26.2753    6.0823 O   0  0  0  0  0  0  0  0  0  0  0  0
   -3.8272   23.8880    5.0817 S   0  0  0  0  0  0  0  0  0  0  0  0
   -4.7570   25.2103    4.3809 C   0  0  0  0  0  0  0  0  0  0  0  0
   -5.8279   24.9819    3.5800 C   0  0  0  0  0  0  0  0  0  0  0  0
   -6.4836   26.0303    2.8049 C   0  0  0  0  0  0  0  0  0  0  0  0
   -7.6402   25.8401    2.1579 C   0  0  0  0  0  0  0  0  0  0  0  0
   -8.3220   24.5214    2.1783 C   0  0  0  0  0  0  0  0  0  0  0  0
   -7.4250   23.4805    2.7945 C   0  0  0  0  0  0  0  0  0  0  0  0
   -6.3060   23.6908    3.4156 N   0  0  0  0  0  0  0  0  0  0  0  0
  1  2  2  3
  2  3  1  0
  3  4  2  0
  4  5  1  0
  5  6  1  0
  6  7  1  0
  6  8  2  0
  4  9  1  0
  9 10  1  0
 10 11  2  3
 11 12  1  0
 12 13  2  0
 13 14  1  0
 14 15  1  0
 15 16  2  0
 10  2  1  0
 16 11  1  0
M  END
>  <Energy>  (403) 
-10.578644700117497

>  <Energy_Delta>  (403) 
4.6017094959698461

>  <std_smi>  (403) 
CC(=O)Nc1nc(C)c(-c2ccccn2)s1

>  <enum_smi>  (403) 
C=c1nc(NC(C)=O)sc1=C1C=CCC=N1

>  <enum_code>  (403) 
T

>  <parent_uuid>  (403) 
38ce1dff-635b-49bf-aa41-0dda23e4ce8b

>  <o3da_score>  (403) 
75.477431618165497

>  <o3da_score_rel>  (403) 
0.30048662183166719

>  <o3da_align>  (403) 
0.42870059515440673

>  <RMSD>  (403) 
0.039850191717542449

>  <CONVERGED>  (403) 
0

>  <ENERGY>  (403) 
-10.59401422357803

$$$$
88bc2b04-a91e-4972-a55a-2e7ebee84b46
     RDKit          3D

 16 17  0  0  0  0  0  0  0  0999 V2000
    0.5573   34.6807   -1.3706 C   0  0  0  0  0  0  0  0  0  0  0  0
    1.3288   33.6781   -0.5528 C   0  0  0  0  0  0  0  0  0  0  0  0
    2.3926   33.9656   -0.0137 O   0  0  0  0  0  0  0  0  0  0  0  0
    0.7898   32.4211   -0.5450 N   0  0  0  0  0  0  0  0  0  0  0  0
    0.0653   32.1462    0.4802 C   0  0  0  0  0  0  0  0  0  0  0  0
   -0.2449   33.0268    1.4795 N   0  0  0  0  0  0  0  0  0  0  0  0
   -0.9774   32.4510    2.3918 C   0  0  0  0  0  0  0  0  0  0  0  0
   -1.4067   33.2679    3.5746 C   0  0  0  0  0  0  0  0  0  0  0  0
   -1.3546   31.0118    2.2018 C   0  0  0  0  0  0  0  0  0  0  0  0
   -2.0669   30.1237    2.9325 C   0  0  0  0  0  0  0  0  0  0  0  0
   -2.6950   30.4098    4.2340 C   0  0  0  0  0  0  0  0  0  0  0  0
   -3.3934   29.4720    4.9059 C   0  0  0  0  0  0  0  0  0  0  0  0
   -3.5520   28.1362    4.3687 C   0  0  0  0  0  0  0  0  0  0  0  0
   -2.9825   27.8620    3.1875 C   0  0  0  0  0  0  0  0  0  0  0  0
   -2.2704   28.8085    2.4942 N   0  0  0  0  0  0  0  0  0  0  0  0
   -0.6402   30.5557    0.6615 S   0  0  0  0  0  0  0  0  0  0  0  0
  1  2  1  0
  2  3  2  0
  2  4  1  0
  4  5  2  3
  5  6  1  0
  6  7  2  0
  7  8  1  0
  7  9  1  0
  9 10  2  3
 10 11  1  0
 11 12  2  0
 12 13  1  0
 13 14  2  0
 14 15  1  0
  9 16  1  0
 16  5  1  0
 15 10  1  0
M  END
>  <Energy>  (404) 
-5.8841194216389558

>  <Energy_Delta>  (404) 
0

>  <std_smi>  (404) 
CC(=O)Nc1nc(C)c(-c2ccccn2)s1

>  <enum_smi>  (404) 
CC(=O)N=C1N=C(C)C(=C2C=CC=CN2)S1

>  <enum_code>  (404) 
T

>  <parent_uuid>  (404) 
38ce1dff-635b-49bf-aa41-0dda23e4ce8b

>  <o3da_score>  (404) 
84.543823636411929

>  <o3da_score_rel>  (404) 
0.33658124576570136

>  <o3da_align>  (404) 
0.37719395785615023

>  <RMSD>  (404) 
6.9005602656377744e-05

>  <CONVERGED>  (404) 
0

>  <ENERGY>  (404) 
-5.8841194216938701

$$$$
88bc2b04-a91e-4972-a55a-2e7ebee84b46
     RDKit          3D

 16 17  0  0  0  0  0  0  0  0999 V2000
    1.5204   31.9334    1.3002 C   0  0  0  0  0  0  0  0  0  0  0  0
    0.0748   32.0789    0.9025 C   0  0  0  0  0  0  0  0  0  0  0  0
   -0.4589   33.1784    0.7971 O   0  0  0  0  0  0  0  0  0  0  0  0
   -0.5457   30.9013    0.5880 N   0  0  0  0  0  0  0  0  0  0  0  0
   -1.2424   30.3836    1.5357 C   0  0  0  0  0  0  0  0  0  0  0  0
   -1.3308   30.8824    2.8059 N   0  0  0  0  0  0  0  0  0  0  0  0
   -2.1292   30.1527    3.5343 C   0  0  0  0  0  0  0  0  0  0  0  0
   -2.3544   30.5582    4.9610 C   0  0  0  0  0  0  0  0  0  0  0  0
   -2.7672   28.9486    2.9077 C   0  0  0  0  0  0  0  0  0  0  0  0
   -3.6328   28.0077    3.3500 C   0  0  0  0  0  0  0  0  0  0  0  0
   -4.2125   27.9611    4.7036 C   0  0  0  0  0  0  0  0  0  0  0  0
   -5.0702   26.9888    5.0747 C   0  0  0  0  0  0  0  0  0  0  0  0
   -5.4579   25.9458    4.1474 C   0  0  0  0  0  0  0  0  0  0  0  0
   -4.9405   25.9788    2.9121 C   0  0  0  0  0  0  0  0  0  0  0  0
   -4.0660   26.9626    2.5235 N   0  0  0  0  0  0  0  0  0  0  0  0
   -2.1450   28.9100    1.2639 S   0  0  0  0  0  0  0  0  0  0  0  0
  1  2  1  0
  2  3  2  0
  2  4  1  0
  4  5  2  3
  5  6  1  0
  6  7  2  0
  7  8  1  0
  7  9  1  0
  9 10  2  3
 10 11  1  0
 11 12  2  0
 12 13  1  0
 13 14  2  0
 14 15  1  0
  9 16  1  0
 16  5  1  0
 15 10  1  0
M  END
>  <Energy>  (405) 
-5.8841194215406523

>  <Energy_Delta>  (405) 
9.8303587492409861e-11

>  <std_smi>  (405) 
CC(=O)Nc1nc(C)c(-c2ccccn2)s1

>  <enum_smi>  (405) 
CC(=O)N=C1N=C(C)C(=C2C=CC=CN2)S1

>  <enum_code>  (405) 
T

>  <parent_uuid>  (405) 
38ce1dff-635b-49bf-aa41-0dda23e4ce8b

>  <o3da_score>  (405) 
79.785978097686211

>  <o3da_score_rel>  (405) 
0.31763957138068594

>  <o3da_align>  (405) 
0.50618695789554957

>  <RMSD>  (405) 
6.3220947112320735e-05

>  <CONVERGED>  (405) 
0

>  <ENERGY>  (405) 
-5.8841194216917536

$$$$
88bc2b04-a91e-4972-a55a-2e7ebee84b46
     RDKit          3D

 16 17  0  0  0  0  0  0  0  0999 V2000
    1.4870   32.0157    1.3212 C   0  0  0  0  0  0  0  0  0  0  0  0
    0.0359   32.1020    0.9266 C   0  0  0  0  0  0  0  0  0  0  0  0
   -0.5483   33.1775    0.8427 O   0  0  0  0  0  0  0  0  0  0  0  0
   -0.5296   30.9026    0.5915 N   0  0  0  0  0  0  0  0  0  0  0  0
   -1.2112   30.3426    1.5260 C   0  0  0  0  0  0  0  0  0  0  0  0
   -1.3325   30.8202    2.8014 N   0  0  0  0  0  0  0  0  0  0  0  0
   -2.1169   30.0525    3.5045 C   0  0  0  0  0  0  0  0  0  0  0  0
   -2.3619   30.4143    4.9411 C   0  0  0  0  0  0  0  0  0  0  0  0
   -2.7187   28.8431    2.8475 C   0  0  0  0  0  0  0  0  0  0  0  0
   -3.5913   27.9298    3.3375 C   0  0  0  0  0  0  0  0  0  0  0  0
   -4.0263   26.7727    2.5117 C   0  0  0  0  0  0  0  0  0  0  0  0
   -4.8987   25.8531    2.9671 C   0  0  0  0  0  0  0  0  0  0  0  0
   -5.4582   25.9651    4.2953 C   0  0  0  0  0  0  0  0  0  0  0  0
   -5.0767   27.0027    5.0510 C   0  0  0  0  0  0  0  0  0  0  0  0
   -4.1737   27.9433    4.6069 N   0  0  0  0  0  0  0  0  0  0  0  0
   -2.0450   28.8343    1.2314 S   0  0  0  0  0  0  0  0  0  0  0  0
  1  2  1  0
  2  3  2  0
  2  4  1  0
  4  5  2  3
  5  6  1  0
  6  7  2  0
  7  8  1  0
  7  9  1  0
  9 10  2  3
 10 11  1  0
 11 12  2  0
 12 13  1  0
 13 14  2  0
 14 15  1  0
  9 16  1  0
 16  5  1  0
 15 10  1  0
M  END
>  <Energy>  (406) 
-3.7619074181502246

>  <Energy_Delta>  (406) 
2.1222120034887313

>  <std_smi>  (406) 
CC(=O)Nc1nc(C)c(-c2ccccn2)s1

>  <enum_smi>  (406) 
CC(=O)N=C1N=C(C)C(=C2C=CC=CN2)S1

>  <enum_code>  (406) 
T

>  <parent_uuid>  (406) 
38ce1dff-635b-49bf-aa41-0dda23e4ce8b

>  <o3da_score>  (406) 
85.7796614607621

>  <o3da_score_rel>  (406) 
0.34150129570658205

>  <o3da_align>  (406) 
0.57500102605618275

>  <RMSD>  (406) 
5.8558825860813707e-05

>  <CONVERGED>  (406) 
0

>  <ENERGY>  (406) 
-3.7619074182032088

$$$$
88bc2b04-a91e-4972-a55a-2e7ebee84b46
     RDKit          3D

 16 17  0  0  0  0  0  0  0  0999 V2000
   -0.7232   33.2312    0.0856 C   0  0  0  0  0  0  0  0  0  0  0  0
   -0.0103   32.0856    0.7551 C   0  0  0  0  0  0  0  0  0  0  0  0
    1.0019   32.2581    1.4263 O   0  0  0  0  0  0  0  0  0  0  0  0
   -0.5352   30.8541    0.4754 N   0  0  0  0  0  0  0  0  0  0  0  0
   -1.3283   30.3846    1.3709 C   0  0  0  0  0  0  0  0  0  0  0  0
   -1.7184   31.0510    2.4993 N   0  0  0  0  0  0  0  0  0  0  0  0
   -2.4952   30.3000    3.2283 C   0  0  0  0  0  0  0  0  0  0  0  0
   -3.0346   30.8697    4.5086 C   0  0  0  0  0  0  0  0  0  0  0  0
   -2.8210   28.9162    2.7431 C   0  0  0  0  0  0  0  0  0  0  0  0
   -3.5509   27.9372    3.3299 C   0  0  0  0  0  0  0  0  0  0  0  0
   -3.7819   26.6413    2.6390 C   0  0  0  0  0  0  0  0  0  0  0  0
   -4.4954   25.6459    3.1995 C   0  0  0  0  0  0  0  0  0  0  0  0
   -5.0652   25.8026    4.5187 C   0  0  0  0  0  0  0  0  0  0  0  0
   -4.8649   26.9641    5.1544 C   0  0  0  0  0  0  0  0  0  0  0  0
   -4.1514   27.9980    4.5895 N   0  0  0  0  0  0  0  0  0  0  0  0
   -2.0313   28.7945    1.1851 S   0  0  0  0  0  0  0  0  0  0  0  0
  1  2  1  0
  2  3  2  0
  2  4  1  0
  4  5  2  3
  5  6  1  0
  6  7  2  0
  7  8  1  0
  7  9  1  0
  9 10  2  3
 10 11  1  0
 11 12  2  0
 12 13  1  0
 13 14  2  0
 14 15  1  0
  9 16  1  0
 16  5  1  0
 15 10  1  0
M  END
>  <Energy>  (407) 
-3.7619074179665315

>  <Energy_Delta>  (407) 
2.1222120036724244

>  <std_smi>  (407) 
CC(=O)Nc1nc(C)c(-c2ccccn2)s1

>  <enum_smi>  (407) 
CC(=O)N=C1N=C(C)C(=C2C=CC=CN2)S1

>  <enum_code>  (407) 
T

>  <parent_uuid>  (407) 
38ce1dff-635b-49bf-aa41-0dda23e4ce8b

>  <o3da_score>  (407) 
79.489033515123538

>  <o3da_score_rel>  (407) 
0.31645739185267985

>  <o3da_align>  (407) 
0.49069369056097395

>  <RMSD>  (407) 
6.5292746363764477e-05

>  <CONVERGED>  (407) 
0

>  <ENERGY>  (407) 
-3.7619074182071053

$$$$
88bc2b04-a91e-4972-a55a-2e7ebee84b46
     RDKit          3D

 16 17  0  0  0  0  0  0  0  0999 V2000
   -0.8031   33.3811   -0.2404 C   0  0  0  0  0  0  0  0  0  0  0  0
   -0.2986   32.3649    0.7484 C   0  0  0  0  0  0  0  0  0  0  0  0
    0.2215   32.7005    1.8074 O   0  0  0  0  0  0  0  0  0  0  0  0
   -0.4161   31.0766    0.3127 N   0  0  0  0  0  0  0  0  0  0  0  0
   -1.0677   30.2395    1.0410 C   0  0  0  0  0  0  0  0  0  0  0  0
   -1.1509   28.9438    0.6033 N   0  0  0  0  0  0  0  0  0  0  0  0
   -1.8354   28.2068    1.4313 C   0  0  0  0  0  0  0  0  0  0  0  0
   -2.0164   26.7543    1.1029 C   0  0  0  0  0  0  0  0  0  0  0  0
   -2.4040   28.8525    2.6566 C   0  0  0  0  0  0  0  0  0  0  0  0
   -3.1307   28.4022    3.7050 C   0  0  0  0  0  0  0  0  0  0  0  0
   -3.5747   27.0098    3.8907 C   0  0  0  0  0  0  0  0  0  0  0  0
   -4.2928   26.6320    4.9679 C   0  0  0  0  0  0  0  0  0  0  0  0
   -4.6552   27.5893    5.9927 C   0  0  0  0  0  0  0  0  0  0  0  0
   -4.2585   28.8592    5.8352 C   0  0  0  0  0  0  0  0  0  0  0  0
   -3.5334   29.2568    4.7399 N   0  0  0  0  0  0  0  0  0  0  0  0
   -1.9321   30.5391    2.5359 S   0  0  0  0  0  0  0  0  0  0  0  0
  1  2  1  0
  2  3  2  0
  2  4  1  0
  4  5  2  3
  5  6  1  0
  6  7  2  0
  7  8  1  0
  7  9  1  0
  9 10  2  3
 10 11  1  0
 11 12  2  0
 12 13  1  0
 13 14  2  0
 14 15  1  0
  9 16  1  0
 16  5  1  0
 15 10  1  0
M  END
>  <Energy>  (408) 
-3.532542954301757

>  <Energy_Delta>  (408) 
2.3515764673371988

>  <std_smi>  (408) 
CC(=O)Nc1nc(C)c(-c2ccccn2)s1

>  <enum_smi>  (408) 
CC(=O)N=C1N=C(C)C(=C2C=CC=CN2)S1

>  <enum_code>  (408) 
T

>  <parent_uuid>  (408) 
38ce1dff-635b-49bf-aa41-0dda23e4ce8b

>  <o3da_score>  (408) 
69.229774754983083

>  <o3da_score_rel>  (408) 
0.27561379210054415

>  <o3da_align>  (408) 
0.53811039388356086

>  <RMSD>  (408) 
5.8025420170502687e-05

>  <CONVERGED>  (408) 
0

>  <ENERGY>  (408) 
-3.5325429543853488

$$$$
88bc2b04-a91e-4972-a55a-2e7ebee84b46
     RDKit          3D

 16 17  0  0  0  0  0  0  0  0999 V2000
    1.3286   32.2739    0.6544 C   0  0  0  0  0  0  0  0  0  0  0  0
   -0.1616   32.0636    0.6480 C   0  0  0  0  0  0  0  0  0  0  0  0
   -0.9448   33.0063    0.6965 O   0  0  0  0  0  0  0  0  0  0  0  0
   -0.5259   30.7549    0.5128 N   0  0  0  0  0  0  0  0  0  0  0  0
   -1.2898   30.2349    1.4082 C   0  0  0  0  0  0  0  0  0  0  0  0
   -1.6697   28.9291    1.2415 N   0  0  0  0  0  0  0  0  0  0  0  0
   -2.4378   28.5309    2.2155 C   0  0  0  0  0  0  0  0  0  0  0  0
   -2.9500   27.1213    2.1824 C   0  0  0  0  0  0  0  0  0  0  0  0
   -2.7596   29.4999    3.3106 C   0  0  0  0  0  0  0  0  0  0  0  0
   -3.5117   29.4337    4.4331 C   0  0  0  0  0  0  0  0  0  0  0  0
   -4.2689   28.2500    4.8755 C   0  0  0  0  0  0  0  0  0  0  0  0
   -5.0044   28.2601    6.0058 C   0  0  0  0  0  0  0  0  0  0  0  0
   -5.0799   29.4468    6.8328 C   0  0  0  0  0  0  0  0  0  0  0  0
   -4.3950   30.5299    6.4423 C   0  0  0  0  0  0  0  0  0  0  0  0
   -3.6376   30.5292    5.2978 N   0  0  0  0  0  0  0  0  0  0  0  0
   -1.8942   30.9659    2.8820 S   0  0  0  0  0  0  0  0  0  0  0  0
  1  2  1  0
  2  3  2  0
  2  4  1  0
  4  5  2  3
  5  6  1  0
  6  7  2  0
  7  8  1  0
  7  9  1  0
  9 10  2  3
 10 11  1  0
 11 12  2  0
 12 13  1  0
 13 14  2  0
 14 15  1  0
  9 16  1  0
 16  5  1  0
 15 10  1  0
M  END
>  <Energy>  (409) 
-3.5325429542476385

>  <Energy_Delta>  (409) 
2.3515764673913173

>  <std_smi>  (409) 
CC(=O)Nc1nc(C)c(-c2ccccn2)s1

>  <enum_smi>  (409) 
CC(=O)N=C1N=C(C)C(=C2C=CC=CN2)S1

>  <enum_code>  (409) 
T

>  <parent_uuid>  (409) 
38ce1dff-635b-49bf-aa41-0dda23e4ce8b

>  <o3da_score>  (409) 
72.211215366025385

>  <o3da_score_rel>  (409) 
0.28748334036413697

>  <o3da_align>  (409) 
0.42975634021651904

>  <RMSD>  (409) 
6.4041023342911214e-05

>  <CONVERGED>  (409) 
0

>  <ENERGY>  (409) 
-3.5325429543900269

$$$$
88bc2b04-a91e-4972-a55a-2e7ebee84b46
     RDKit          3D

 16 17  0  0  0  0  0  0  0  0999 V2000
   -8.8346   29.7830    4.9064 C   0  0  0  0  0  0  0  0  0  0  0  0
   -7.8364   29.2136    3.9346 C   0  0  0  0  0  0  0  0  0  0  0  0
   -8.1580   28.8887    2.7965 O   0  0  0  0  0  0  0  0  0  0  0  0
   -6.5623   29.1709    4.4230 N   0  0  0  0  0  0  0  0  0  0  0  0
   -5.9686   28.0306    4.4773 C   0  0  0  0  0  0  0  0  0  0  0  0
   -4.6797   28.0034    4.9397 N   0  0  0  0  0  0  0  0  0  0  0  0
   -4.2026   26.7917    4.9282 C   0  0  0  0  0  0  0  0  0  0  0  0
   -2.7984   26.5781    5.4150 C   0  0  0  0  0  0  0  0  0  0  0  0
   -5.0818   25.6781    4.4421 C   0  0  0  0  0  0  0  0  0  0  0  0
   -4.8160   24.3578    4.2941 C   0  0  0  0  0  0  0  0  0  0  0  0
   -5.8648   23.4193    3.8147 C   0  0  0  0  0  0  0  0  0  0  0  0
   -5.6308   22.1028    3.6528 C   0  0  0  0  0  0  0  0  0  0  0  0
   -4.3273   21.5471    3.9390 C   0  0  0  0  0  0  0  0  0  0  0  0
   -3.3714   22.3803    4.3694 C   0  0  0  0  0  0  0  0  0  0  0  0
   -3.5969   23.7268    4.5510 N   0  0  0  0  0  0  0  0  0  0  0  0
   -6.6087   26.4496    4.0784 S   0  0  0  0  0  0  0  0  0  0  0  0
  1  2  1  0
  2  3  2  0
  2  4  1  0
  4  5  2  3
  5  6  1  0
  6  7  2  0
  7  8  1  0
  7  9  1  0
  9 10  2  3
 10 11  1  0
 11 12  2  0
 12 13  1  0
 13 14  2  0
 14 15  1  0
  9 16  1  0
 16  5  1  0
 15 10  1  0
M  END
>  <Energy>  (410) 
-1.3797505585414847

>  <Energy_Delta>  (410) 
4.5043688630974712

>  <std_smi>  (410) 
CC(=O)Nc1nc(C)c(-c2ccccn2)s1

>  <enum_smi>  (410) 
CC(=O)N=C1N=C(C)C(=C2C=CC=CN2)S1

>  <enum_code>  (410) 
T

>  <parent_uuid>  (410) 
38ce1dff-635b-49bf-aa41-0dda23e4ce8b

>  <o3da_score>  (410) 
68.004609639406013

>  <o3da_score_rel>  (410) 
0.27073623176398981

>  <o3da_align>  (410) 
0.30892591976430078

>  <RMSD>  (410) 
6.3732278620161521e-05

>  <CONVERGED>  (410) 
0

>  <ENERGY>  (410) 
-1.3797505586452319

$$$$
88bc2b04-a91e-4972-a55a-2e7ebee84b46
     RDKit          3D

 16 17  0  0  0  0  0  0  0  0999 V2000
    0.8236   34.8330   -1.0237 C   0  0  0  0  0  0  0  0  0  0  0  0
    1.1828   33.8052    0.0153 C   0  0  0  0  0  0  0  0  0  0  0  0
    1.8758   34.0864    0.9874 O   0  0  0  0  0  0  0  0  0  0  0  0
    0.7271   32.5518   -0.2763 N   0  0  0  0  0  0  0  0  0  0  0  0
   -0.0541   31.9757    0.5685 C   0  0  0  0  0  0  0  0  0  0  0  0
   -0.4805   30.7063    0.2810 N   0  0  0  0  0  0  0  0  0  0  0  0
   -1.2508   30.2452    1.2243 C   0  0  0  0  0  0  0  0  0  0  0  0
   -1.8176   28.8640    1.0648 C   0  0  0  0  0  0  0  0  0  0  0  0
   -1.5382   31.1193    2.4085 C   0  0  0  0  0  0  0  0  0  0  0  0
   -2.2626   30.8655    3.5251 C   0  0  0  0  0  0  0  0  0  0  0  0
   -2.4387   31.9070    4.5714 C   0  0  0  0  0  0  0  0  0  0  0  0
   -3.1486   31.6843    5.6941 C   0  0  0  0  0  0  0  0  0  0  0  0
   -3.7703   30.4004    5.9282 C   0  0  0  0  0  0  0  0  0  0  0  0
   -3.6187   29.4511    4.9960 C   0  0  0  0  0  0  0  0  0  0  0  0
   -2.9056   29.6657    3.8374 N   0  0  0  0  0  0  0  0  0  0  0  0
   -0.7121   32.6206    2.0584 S   0  0  0  0  0  0  0  0  0  0  0  0
  1  2  1  0
  2  3  2  0
  2  4  1  0
  4  5  2  3
  5  6  1  0
  6  7  2  0
  7  8  1  0
  7  9  1  0
  9 10  2  3
 10 11  1  0
 11 12  2  0
 12 13  1  0
 13 14  2  0
 14 15  1  0
  9 16  1  0
 16  5  1  0
 15 10  1  0
M  END
>  <Energy>  (411) 
-1.3797505581817466

>  <Energy_Delta>  (411) 
4.5043688634572092

>  <std_smi>  (411) 
CC(=O)Nc1nc(C)c(-c2ccccn2)s1

>  <enum_smi>  (411) 
CC(=O)N=C1N=C(C)C(=C2C=CC=CN2)S1

>  <enum_code>  (411) 
T

>  <parent_uuid>  (411) 
38ce1dff-635b-49bf-aa41-0dda23e4ce8b

>  <o3da_score>  (411) 
81.245110698213779

>  <o3da_score_rel>  (411) 
0.32344859026933953

>  <o3da_align>  (411) 
0.34497518939946326

>  <RMSD>  (411) 
6.4218299871233138e-05

>  <CONVERGED>  (411) 
0

>  <ENERGY>  (411) 
-1.3797505586671042

$$$$
f29dbdfc-3e9a-41c3-b275-1e3ebcf8c3e3
     RDKit          3D

 16 17  0  0  0  0  0  0  0  0999 V2000
   -3.7604   24.4244    4.3782 C   0  0  0  0  0  0  0  0  0  0  0  0
   -4.7689   25.4999    4.0677 C   0  0  0  0  0  0  0  0  0  0  0  0
   -5.6736   25.3217    3.2585 O   0  0  0  0  0  0  0  0  0  0  0  0
   -4.6446   26.6305    4.8275 N   0  0  0  0  0  0  0  0  0  0  0  0
   -3.9606   27.5756    4.2881 C   0  0  0  0  0  0  0  0  0  0  0  0
   -3.3169   27.4876    3.0837 N   0  0  0  0  0  0  0  0  0  0  0  0
   -2.7194   28.6135    2.8040 C   0  0  0  0  0  0  0  0  0  0  0  0
   -1.9611   28.7333    1.5113 C   0  0  0  0  0  0  0  0  0  0  0  0
   -2.8179   29.7325    3.7969 C   0  0  0  0  0  0  0  0  0  0  0  0
   -2.2859   30.9699    3.7028 C   0  0  0  0  0  0  0  0  0  0  0  0
   -2.4587   31.9764    4.7494 C   0  0  0  0  0  0  0  0  0  0  0  0
   -1.9451   33.2098    4.6678 C   0  0  0  0  0  0  0  0  0  0  0  0
   -1.1539   33.6410    3.4892 C   0  0  0  0  0  0  0  0  0  0  0  0
   -1.0403   32.5195    2.4912 C   0  0  0  0  0  0  0  0  0  0  0  0
   -1.5478   31.3291    2.5943 N   0  0  0  0  0  0  0  0  0  0  0  0
   -3.7667   29.1068    5.1165 S   0  0  0  0  0  0  0  0  0  0  0  0
  1  2  1  0
  2  3  2  0
  2  4  1  0
  4  5  2  3
  5  6  1  0
  6  7  2  0
  7  8  1  0
  7  9  1  0
  9 10  2  3
 10 11  1  0
 11 12  2  0
 12 13  1  0
 13 14  1  0
 14 15  2  0
  9 16  1  0
 16  5  1  0
 15 10  1  0
M  END
>  <Energy>  (412) 
-2.1799460972806539

>  <Energy_Delta>  (412) 
0

>  <std_smi>  (412) 
CC(=O)Nc1nc(C)c(-c2ccccn2)s1

>  <enum_smi>  (412) 
CC(=O)N=C1N=C(C)C(=C2C=CCC=N2)S1

>  <enum_code>  (412) 
T

>  <parent_uuid>  (412) 
38ce1dff-635b-49bf-aa41-0dda23e4ce8b

>  <o3da_score>  (412) 
78.419763334517114

>  <o3da_score_rel>  (412) 
0.31220047190313521

>  <o3da_align>  (412) 
0.43806007667666097

>  <RMSD>  (412) 
6.5230033538293721e-05

>  <CONVERGED>  (412) 
0

>  <ENERGY>  (412) 
-2.1799460973090361

$$$$
f29dbdfc-3e9a-41c3-b275-1e3ebcf8c3e3
     RDKit          3D

 16 17  0  0  0  0  0  0  0  0999 V2000
    0.5458   34.6480   -1.4337 C   0  0  0  0  0  0  0  0  0  0  0  0
    1.3456   33.6432   -0.6457 C   0  0  0  0  0  0  0  0  0  0  0  0
    2.4444   33.9196   -0.1751 O   0  0  0  0  0  0  0  0  0  0  0  0
    0.7909   32.3942   -0.5908 N   0  0  0  0  0  0  0  0  0  0  0  0
    0.0826   32.1594    0.4558 C   0  0  0  0  0  0  0  0  0  0  0  0
   -0.1954   33.0741    1.4349 N   0  0  0  0  0  0  0  0  0  0  0  0
   -0.9277   32.5319    2.3691 C   0  0  0  0  0  0  0  0  0  0  0  0
   -1.3355   33.3674    3.5507 C   0  0  0  0  0  0  0  0  0  0  0  0
   -1.3299   31.0966    2.2092 C   0  0  0  0  0  0  0  0  0  0  0  0
   -2.0721   30.3475    3.0525 C   0  0  0  0  0  0  0  0  0  0  0  0
   -2.3941   28.9480    2.7772 C   0  0  0  0  0  0  0  0  0  0  0  0
   -3.1212   28.1896    3.6064 C   0  0  0  0  0  0  0  0  0  0  0  0
   -3.6561   28.7310    4.8799 C   0  0  0  0  0  0  0  0  0  0  0  0
   -3.2663   30.1759    5.0439 C   0  0  0  0  0  0  0  0  0  0  0  0
   -2.5595   30.8911    4.2228 N   0  0  0  0  0  0  0  0  0  0  0  0
   -0.6411   30.5821    0.6946 S   0  0  0  0  0  0  0  0  0  0  0  0
  1  2  1  0
  2  3  2  0
  2  4  1  0
  4  5  2  3
  5  6  1  0
  6  7  2  0
  7  8  1  0
  7  9  1  0
  9 10  2  3
 10 11  1  0
 11 12  2  0
 12 13  1  0
 13 14  1  0
 14 15  2  0
  9 16  1  0
 16  5  1  0
 15 10  1  0
M  END
>  <Energy>  (413) 
-2.1799460971939952

>  <Energy_Delta>  (413) 
8.6658680231721519e-11

>  <std_smi>  (413) 
CC(=O)Nc1nc(C)c(-c2ccccn2)s1

>  <enum_smi>  (413) 
CC(=O)N=C1N=C(C)C(=C2C=CCC=N2)S1

>  <enum_code>  (413) 
T

>  <parent_uuid>  (413) 
38ce1dff-635b-49bf-aa41-0dda23e4ce8b

>  <o3da_score>  (413) 
87.617935973536305

>  <o3da_score_rel>  (413) 
0.34881973363564678

>  <o3da_align>  (413) 
0.31238492560770681

>  <RMSD>  (413) 
7.492718745801715e-05

>  <CONVERGED>  (413) 
0

>  <ENERGY>  (413) 
-2.1799460973364049

$$$$
f29dbdfc-3e9a-41c3-b275-1e3ebcf8c3e3
     RDKit          3D

 16 17  0  0  0  0  0  0  0  0999 V2000
    0.7410   34.8289   -1.0254 C   0  0  0  0  0  0  0  0  0  0  0  0
    1.1295   33.8108    0.0127 C   0  0  0  0  0  0  0  0  0  0  0  0
    1.8474   34.1027    0.9635 O   0  0  0  0  0  0  0  0  0  0  0  0
    0.6681   32.5548   -0.2569 N   0  0  0  0  0  0  0  0  0  0  0  0
   -0.0781   31.9761    0.6177 C   0  0  0  0  0  0  0  0  0  0  0  0
   -0.5108   30.7040    0.3464 N   0  0  0  0  0  0  0  0  0  0  0  0
   -1.2544   30.2472    1.3150 C   0  0  0  0  0  0  0  0  0  0  0  0
   -1.8191   28.8581    1.2064 C   0  0  0  0  0  0  0  0  0  0  0  0
   -1.5100   31.1394    2.4891 C   0  0  0  0  0  0  0  0  0  0  0  0
   -2.2327   30.8644    3.5959 C   0  0  0  0  0  0  0  0  0  0  0  0
   -2.4006   31.8320    4.6795 C   0  0  0  0  0  0  0  0  0  0  0  0
   -3.1105   31.5745    5.7846 C   0  0  0  0  0  0  0  0  0  0  0  0
   -3.7836   30.2674    5.9835 C   0  0  0  0  0  0  0  0  0  0  0  0
   -3.5393   29.3634    4.8047 C   0  0  0  0  0  0  0  0  0  0  0  0
   -2.8463   29.6376    3.7418 N   0  0  0  0  0  0  0  0  0  0  0  0
   -0.6774   32.6250    2.1346 S   0  0  0  0  0  0  0  0  0  0  0  0
  1  2  1  0
  2  3  2  0
  2  4  1  0
  4  5  2  3
  5  6  1  0
  6  7  2  0
  7  8  1  0
  7  9  1  0
  9 10  2  3
 10 11  1  0
 11 12  2  0
 12 13  1  0
 13 14  1  0
 14 15  2  0
  9 16  1  0
 16  5  1  0
 15 10  1  0
M  END
>  <Energy>  (414) 
0.34572336059798425

>  <Energy_Delta>  (414) 
2.5256694578786383

>  <std_smi>  (414) 
CC(=O)Nc1nc(C)c(-c2ccccn2)s1

>  <enum_smi>  (414) 
CC(=O)N=C1N=C(C)C(=C2C=CCC=N2)S1

>  <enum_code>  (414) 
T

>  <parent_uuid>  (414) 
38ce1dff-635b-49bf-aa41-0dda23e4ce8b

>  <o3da_score>  (414) 
84.531947997758579

>  <o3da_score_rel>  (414) 
0.33653396712274103

>  <o3da_align>  (414) 
0.3123236987840044

>  <RMSD>  (414) 
6.4311174428029151e-05

>  <CONVERGED>  (414) 
0

>  <ENERGY>  (414) 
0.34572336044962781

$$$$
f29dbdfc-3e9a-41c3-b275-1e3ebcf8c3e3
     RDKit          3D

 16 17  0  0  0  0  0  0  0  0999 V2000
    0.3439   31.4681   -2.7134 C   0  0  0  0  0  0  0  0  0  0  0  0
    0.8056   31.1608   -1.3143 C   0  0  0  0  0  0  0  0  0  0  0  0
    1.3347   30.0909   -1.0316 O   0  0  0  0  0  0  0  0  0  0  0  0
    0.6403   32.2005   -0.4456 N   0  0  0  0  0  0  0  0  0  0  0  0
   -0.0709   32.0089    0.6099 C   0  0  0  0  0  0  0  0  0  0  0  0
   -0.2048   33.0533    1.4877 N   0  0  0  0  0  0  0  0  0  0  0  0
   -0.9490   32.7166    2.5039 C   0  0  0  0  0  0  0  0  0  0  0  0
   -1.2067   33.7292    3.5848 C   0  0  0  0  0  0  0  0  0  0  0  0
   -1.5132   31.3308    2.5366 C   0  0  0  0  0  0  0  0  0  0  0  0
   -2.2896   30.7755    3.4915 C   0  0  0  0  0  0  0  0  0  0  0  0
   -2.7732   29.3983    3.4018 C   0  0  0  0  0  0  0  0  0  0  0  0
   -3.5405   28.8315    4.3407 C   0  0  0  0  0  0  0  0  0  0  0  0
   -3.9558   29.5781    5.5536 C   0  0  0  0  0  0  0  0  0  0  0  0
   -3.3996   30.9768    5.5283 C   0  0  0  0  0  0  0  0  0  0  0  0
   -2.6571   31.5044    4.6035 N   0  0  0  0  0  0  0  0  0  0  0  0
   -0.9605   30.5687    1.0739 S   0  0  0  0  0  0  0  0  0  0  0  0
  1  2  1  0
  2  3  2  0
  2  4  1  0
  4  5  2  3
  5  6  1  0
  6  7  2  0
  7  8  1  0
  7  9  1  0
  9 10  2  3
 10 11  1  0
 11 12  2  0
 12 13  1  0
 13 14  1  0
 14 15  2  0
  9 16  1  0
 16  5  1  0
 15 10  1  0
M  END
>  <Energy>  (415) 
0.3457233612741959

>  <Energy_Delta>  (415) 
2.5256694585548498

>  <std_smi>  (415) 
CC(=O)Nc1nc(C)c(-c2ccccn2)s1

>  <enum_smi>  (415) 
CC(=O)N=C1N=C(C)C(=C2C=CCC=N2)S1

>  <enum_code>  (415) 
T

>  <parent_uuid>  (415) 
38ce1dff-635b-49bf-aa41-0dda23e4ce8b

>  <o3da_score>  (415) 
82.242030088586148

>  <o3da_score_rel>  (415) 
0.32741747121069076

>  <o3da_align>  (415) 
0.3528348493445343

>  <RMSD>  (415) 
6.9765040647431906e-05

>  <CONVERGED>  (415) 
0

>  <ENERGY>  (415) 
0.34572336051419594

$$$$
f29dbdfc-3e9a-41c3-b275-1e3ebcf8c3e3
     RDKit          3D

 16 17  0  0  0  0  0  0  0  0999 V2000
    2.4724   34.0718   -0.2847 C   0  0  0  0  0  0  0  0  0  0  0  0
    1.0604   33.7599   -0.7070 C   0  0  0  0  0  0  0  0  0  0  0  0
    0.3268   34.6167   -1.1896 O   0  0  0  0  0  0  0  0  0  0  0  0
    0.7148   32.4425   -0.5869 N   0  0  0  0  0  0  0  0  0  0  0  0
    0.0578   32.1462    0.4775 C   0  0  0  0  0  0  0  0  0  0  0  0
   -0.2343   33.0253    1.4842 N   0  0  0  0  0  0  0  0  0  0  0  0
   -0.9561   32.4475    2.4033 C   0  0  0  0  0  0  0  0  0  0  0  0
   -1.3434   33.2598    3.6049 C   0  0  0  0  0  0  0  0  0  0  0  0
   -1.3324   31.0060    2.2208 C   0  0  0  0  0  0  0  0  0  0  0  0
   -2.1141   30.1545    2.9259 C   0  0  0  0  0  0  0  0  0  0  0  0
   -2.8956   30.5248    4.0990 C   0  0  0  0  0  0  0  0  0  0  0  0
   -3.5499   29.6317    4.8528 C   0  0  0  0  0  0  0  0  0  0  0  0
   -3.5342   28.1829    4.5298 C   0  0  0  0  0  0  0  0  0  0  0  0
   -2.8484   27.9539    3.2114 C   0  0  0  0  0  0  0  0  0  0  0  0
   -2.2208   28.8393    2.5022 N   0  0  0  0  0  0  0  0  0  0  0  0
   -0.5020   30.5144    0.7497 S   0  0  0  0  0  0  0  0  0  0  0  0
  1  2  1  0
  2  3  2  0
  2  4  1  0
  4  5  2  3
  5  6  1  0
  6  7  2  0
  7  8  1  0
  7  9  1  0
  9 10  2  3
 10 11  1  0
 11 12  2  0
 12 13  1  0
 13 14  1  0
 14 15  2  0
  9 16  1  0
 16  5  1  0
 15 10  1  0
M  END
>  <Energy>  (416) 
5.1945328852339507

>  <Energy_Delta>  (416) 
7.3744789825146047

>  <std_smi>  (416) 
CC(=O)Nc1nc(C)c(-c2ccccn2)s1

>  <enum_smi>  (416) 
CC(=O)N=C1N=C(C)C(=C2C=CCC=N2)S1

>  <enum_code>  (416) 
T

>  <parent_uuid>  (416) 
38ce1dff-635b-49bf-aa41-0dda23e4ce8b

>  <o3da_score>  (416) 
83.261371246671672

>  <o3da_score_rel>  (416) 
0.3314756164670985

>  <o3da_align>  (416) 
0.41365495673812142

>  <RMSD>  (416) 
5.8688756354618732e-05

>  <CONVERGED>  (416) 
0

>  <ENERGY>  (416) 
5.1945328851782033

$$$$
f29dbdfc-3e9a-41c3-b275-1e3ebcf8c3e3
     RDKit          3D

 16 17  0  0  0  0  0  0  0  0999 V2000
    0.6829   34.6753   -1.3446 C   0  0  0  0  0  0  0  0  0  0  0  0
    1.3970   33.6464   -0.5076 C   0  0  0  0  0  0  0  0  0  0  0  0
    2.4502   33.9005    0.0681 O   0  0  0  0  0  0  0  0  0  0  0  0
    0.8194   32.4072   -0.5250 N   0  0  0  0  0  0  0  0  0  0  0  0
    0.0622   32.1447    0.4801 C   0  0  0  0  0  0  0  0  0  0  0  0
   -0.2403   33.0274    1.4806 N   0  0  0  0  0  0  0  0  0  0  0  0
   -0.9860   32.4576    2.3856 C   0  0  0  0  0  0  0  0  0  0  0  0
   -1.4422   33.2931    3.5464 C   0  0  0  0  0  0  0  0  0  0  0  0
   -1.3647   31.0169    2.2017 C   0  0  0  0  0  0  0  0  0  0  0  0
   -2.0415   30.1300    2.9689 C   0  0  0  0  0  0  0  0  0  0  0  0
   -2.5341   30.4029    4.3131 C   0  0  0  0  0  0  0  0  0  0  0  0
   -3.3160   29.5527    4.9914 C   0  0  0  0  0  0  0  0  0  0  0  0
   -3.7277   28.2481    4.4152 C   0  0  0  0  0  0  0  0  0  0  0  0
   -3.0175   28.0109    3.1113 C   0  0  0  0  0  0  0  0  0  0  0  0
   -2.2655   28.8544    2.4757 N   0  0  0  0  0  0  0  0  0  0  0  0
   -0.7049   30.5829    0.6295 S   0  0  0  0  0  0  0  0  0  0  0  0
  1  2  1  0
  2  3  2  0
  2  4  1  0
  4  5  2  3
  5  6  1  0
  6  7  2  0
  7  8  1  0
  7  9  1  0
  9 10  2  3
 10 11  1  0
 11 12  2  0
 12 13  1  0
 13 14  1  0
 14 15  2  0
  9 16  1  0
 16  5  1  0
 15 10  1  0
M  END
>  <Energy>  (417) 
5.1945328852428778

>  <Energy_Delta>  (417) 
7.3744789825235317

>  <std_smi>  (417) 
CC(=O)Nc1nc(C)c(-c2ccccn2)s1

>  <enum_smi>  (417) 
CC(=O)N=C1N=C(C)C(=C2C=CCC=N2)S1

>  <enum_code>  (417) 
T

>  <parent_uuid>  (417) 
38ce1dff-635b-49bf-aa41-0dda23e4ce8b

>  <o3da_score>  (417) 
83.823848651503127

>  <o3da_score_rel>  (417) 
0.33371492074138132

>  <o3da_align>  (417) 
0.39150405985872927

>  <RMSD>  (417) 
6.2408311734133966e-05

>  <CONVERGED>  (417) 
0

>  <ENERGY>  (417) 
5.1945328851800179

$$$$
f29dbdfc-3e9a-41c3-b275-1e3ebcf8c3e3
     RDKit          3D

 16 17  0  0  0  0  0  0  0  0999 V2000
    1.5559   32.4952    0.0892 C   0  0  0  0  0  0  0  0  0  0  0  0
    0.0625   32.6114    0.2366 C   0  0  0  0  0  0  0  0  0  0  0  0
   -0.6992   32.3676   -0.6930 O   0  0  0  0  0  0  0  0  0  0  0  0
   -0.3353   33.0776    1.4565 N   0  0  0  0  0  0  0  0  0  0  0  0
   -1.0055   32.2807    2.2130 C   0  0  0  0  0  0  0  0  0  0  0  0
   -1.4319   32.7583    3.4239 N   0  0  0  0  0  0  0  0  0  0  0  0
   -2.1131   31.8570    4.0723 C   0  0  0  0  0  0  0  0  0  0  0  0
   -2.6294   32.2154    5.4354 C   0  0  0  0  0  0  0  0  0  0  0  0
   -2.3208   30.5174    3.4328 C   0  0  0  0  0  0  0  0  0  0  0  0
   -3.0084   29.4087    3.7961 C   0  0  0  0  0  0  0  0  0  0  0  0
   -3.8337   29.2979    4.9922 C   0  0  0  0  0  0  0  0  0  0  0  0
   -4.4171   28.1549    5.3759 C   0  0  0  0  0  0  0  0  0  0  0  0
   -4.2700   26.9043    4.5903 C   0  0  0  0  0  0  0  0  0  0  0  0
   -3.5155   27.1760    3.3187 C   0  0  0  0  0  0  0  0  0  0  0  0
   -2.9587   28.2946    2.9731 N   0  0  0  0  0  0  0  0  0  0  0  0
   -1.4181   30.6047    1.9266 S   0  0  0  0  0  0  0  0  0  0  0  0
  1  2  1  0
  2  3  2  0
  2  4  1  0
  4  5  2  3
  5  6  1  0
  6  7  2  0
  7  8  1  0
  7  9  1  0
  9 10  2  3
 10 11  1  0
 11 12  2  0
 12 13  1  0
 13 14  1  0
 14 15  2  0
  9 16  1  0
 16  5  1  0
 15 10  1  0
M  END
>  <Energy>  (418) 
7.6246954752631986

>  <Energy_Delta>  (418) 
9.8046415725438525

>  <std_smi>  (418) 
CC(=O)Nc1nc(C)c(-c2ccccn2)s1

>  <enum_smi>  (418) 
CC(=O)N=C1N=C(C)C(=C2C=CCC=N2)S1

>  <enum_code>  (418) 
T

>  <parent_uuid>  (418) 
38ce1dff-635b-49bf-aa41-0dda23e4ce8b

>  <o3da_score>  (418) 
90.795016675119427

>  <o3da_score_rel>  (418) 
0.36146815352538153

>  <o3da_align>  (418) 
0.55575689056180311

>  <RMSD>  (418) 
5.2324052079440074e-05

>  <CONVERGED>  (418) 
0

>  <ENERGY>  (418) 
7.6246954750830396

$$$$
f29dbdfc-3e9a-41c3-b275-1e3ebcf8c3e3
     RDKit          3D

 16 17  0  0  0  0  0  0  0  0999 V2000
   -0.1510   33.2125   -0.8524 C   0  0  0  0  0  0  0  0  0  0  0  0
    0.3273   32.5677    0.4207 C   0  0  0  0  0  0  0  0  0  0  0  0
    1.2017   31.7080    0.4203 O   0  0  0  0  0  0  0  0  0  0  0  0
   -0.2457   33.0832    1.5475 N   0  0  0  0  0  0  0  0  0  0  0  0
   -1.0045   32.3094    2.2416 C   0  0  0  0  0  0  0  0  0  0  0  0
   -1.5543   32.8166    3.3892 N   0  0  0  0  0  0  0  0  0  0  0  0
   -2.2780   31.9222    3.9999 C   0  0  0  0  0  0  0  0  0  0  0  0
   -2.9756   32.3302    5.2648 C   0  0  0  0  0  0  0  0  0  0  0  0
   -2.3886   30.5548    3.3961 C   0  0  0  0  0  0  0  0  0  0  0  0
   -2.9932   29.4089    3.7903 C   0  0  0  0  0  0  0  0  0  0  0  0
   -3.6895   29.2308    5.0582 C   0  0  0  0  0  0  0  0  0  0  0  0
   -4.3648   28.1177    5.3726 C   0  0  0  0  0  0  0  0  0  0  0  0
   -4.4425   26.9654    4.4405 C   0  0  0  0  0  0  0  0  0  0  0  0
   -3.5797   27.2141    3.2348 C   0  0  0  0  0  0  0  0  0  0  0  0
   -2.9371   28.3046    2.9546 N   0  0  0  0  0  0  0  0  0  0  0  0
   -1.4896   30.6657    1.8893 S   0  0  0  0  0  0  0  0  0  0  0  0
  1  2  1  0
  2  3  2  0
  2  4  1  0
  4  5  2  3
  5  6  1  0
  6  7  2  0
  7  8  1  0
  7  9  1  0
  9 10  2  3
 10 11  1  0
 11 12  2  0
 12 13  1  0
 13 14  1  0
 14 15  2  0
  9 16  1  0
 16  5  1  0
 15 10  1  0
M  END
>  <Energy>  (419) 
7.624695475344418

>  <Energy_Delta>  (419) 
9.8046415726250729

>  <std_smi>  (419) 
CC(=O)Nc1nc(C)c(-c2ccccn2)s1

>  <enum_smi>  (419) 
CC(=O)N=C1N=C(C)C(=C2C=CCC=N2)S1

>  <enum_code>  (419) 
T

>  <parent_uuid>  (419) 
38ce1dff-635b-49bf-aa41-0dda23e4ce8b

>  <o3da_score>  (419) 
85.799388340298179

>  <o3da_score_rel>  (419) 
0.34157983128024944

>  <o3da_align>  (419) 
0.50864795559167542

>  <RMSD>  (419) 
7.4152394386450395e-05

>  <CONVERGED>  (419) 
0

>  <ENERGY>  (419) 
7.624695475075641

$$$$
c3f37d01-5871-4244-b693-80848720f4cf
     RDKit          3D

 16 17  0  0  0  0  0  0  0  0999 V2000
   -4.9868   23.4886    5.7928 C   0  0  0  0  0  0  0  0  0  0  0  0
   -4.6480   24.2310    4.5273 C   0  0  0  0  0  0  0  0  0  0  0  0
   -3.9912   23.7149    3.6287 O   0  0  0  0  0  0  0  0  0  0  0  0
   -5.2013   25.4788    4.4410 N   0  0  0  0  0  0  0  0  0  0  0  0
   -4.4082   26.4490    4.7222 C   0  0  0  0  0  0  0  0  0  0  0  0
   -3.1207   26.3002    5.1592 N   0  0  0  0  0  0  0  0  0  0  0  0
   -2.5268   27.4516    5.2479 C   0  0  0  0  0  0  0  0  0  0  0  0
   -1.1057   27.5491    5.7204 C   0  0  0  0  0  0  0  0  0  0  0  0
   -3.2835   28.7054    4.8701 C   0  0  1  0  0  0  0  0  0  0  0  0
   -2.6592   29.4178    3.6941 C   0  0  0  0  0  0  0  0  0  0  0  0
   -2.5653   28.8327    2.4291 C   0  0  0  0  0  0  0  0  0  0  0  0
   -1.9498   29.5398    1.3992 C   0  0  0  0  0  0  0  0  0  0  0  0
   -1.4386   30.8057    1.6505 C   0  0  0  0  0  0  0  0  0  0  0  0
   -1.5600   31.3142    2.9306 C   0  0  0  0  0  0  0  0  0  0  0  0
   -2.1469   30.6495    3.9514 N   0  0  0  0  0  0  0  0  0  0  0  0
   -4.9697   28.0976    4.5681 S   0  0  0  0  0  0  0  0  0  0  0  0
  1  2  1  0
  2  3  2  0
  2  4  1  0
  4  5  2  3
  5  6  1  0
  6  7  2  0
  7  8  1  0
  7  9  1  0
  9 10  1  6
 10 11  2  0
 11 12  1  0
 12 13  2  0
 13 14  1  0
 14 15  2  0
  9 16  1  0
 16  5  1  0
 15 10  1  0
M  END
>  <Energy>  (420) 
-17.746858584033902

>  <Energy_Delta>  (420) 
0

>  <std_smi>  (420) 
CC(=O)Nc1nc(C)c(-c2ccccn2)s1

>  <enum_smi>  (420) 
CC(=O)N=C1N=C(C)C(c2ccccn2)S1

>  <enum_code>  (420) 
T

>  <parent_uuid>  (420) 
38ce1dff-635b-49bf-aa41-0dda23e4ce8b

>  <o3da_score>  (420) 
83.184358855436372

>  <o3da_score_rel>  (420) 
0.33116901894800771

>  <o3da_align>  (420) 
0.40376212828749108

>  <RMSD>  (420) 
6.3211055983616643e-05

>  <CONVERGED>  (420) 
0

>  <ENERGY>  (420) 
-17.746858584081714

$$$$
c3f37d01-5871-4244-b693-80848720f4cf
     RDKit          3D

 16 17  0  0  0  0  0  0  0  0999 V2000
   -3.6433   24.0220    4.6669 C   0  0  0  0  0  0  0  0  0  0  0  0
   -2.6544   25.0572    5.1336 C   0  0  0  0  0  0  0  0  0  0  0  0
   -1.4631   24.7995    5.2735 O   0  0  0  0  0  0  0  0  0  0  0  0
   -3.2124   26.2624    5.4602 N   0  0  0  0  0  0  0  0  0  0  0  0
   -3.1049   27.1755    4.5635 C   0  0  0  0  0  0  0  0  0  0  0  0
   -2.5551   26.9892    3.3250 N   0  0  0  0  0  0  0  0  0  0  0  0
   -2.4744   28.1141    2.6812 C   0  0  0  0  0  0  0  0  0  0  0  0
   -1.9153   28.1648    1.2894 C   0  0  0  0  0  0  0  0  0  0  0  0
   -2.9533   29.3842    3.3482 C   0  0  2  0  0  0  0  0  0  0  0  0
   -1.8377   30.3827    3.5446 C   0  0  0  0  0  0  0  0  0  0  0  0
   -0.7306   30.1177    4.3543 C   0  0  0  0  0  0  0  0  0  0  0  0
    0.2738   31.0762    4.4644 C   0  0  0  0  0  0  0  0  0  0  0  0
    0.1579   32.2698    3.7654 C   0  0  0  0  0  0  0  0  0  0  0  0
   -0.9620   32.4557    2.9760 C   0  0  0  0  0  0  0  0  0  0  0  0
   -1.9499   31.5419    2.8450 N   0  0  0  0  0  0  0  0  0  0  0  0
   -3.7025   28.7853    4.8921 S   0  0  0  0  0  0  0  0  0  0  0  0
  1  2  1  0
  2  3  2  0
  2  4  1  0
  4  5  2  3
  5  6  1  0
  6  7  2  0
  7  8  1  0
  7  9  1  0
  9 10  1  1
 10 11  2  0
 11 12  1  0
 12 13  2  0
 13 14  1  0
 14 15  2  0
  9 16  1  0
 16  5  1  0
 15 10  1  0
M  END
>  <Energy>  (421) 
-17.746858583922638

>  <Energy_Delta>  (421) 
1.1126388699267409e-10

>  <std_smi>  (421) 
CC(=O)Nc1nc(C)c(-c2ccccn2)s1

>  <enum_smi>  (421) 
CC(=O)N=C1N=C(C)C(c2ccccn2)S1

>  <enum_code>  (421) 
T

>  <parent_uuid>  (421) 
38ce1dff-635b-49bf-aa41-0dda23e4ce8b

>  <o3da_score>  (421) 
73.530126753630512

>  <o3da_score_rel>  (421) 
0.29273411823058204

>  <o3da_align>  (421) 
0.50115352947327085

>  <RMSD>  (421) 
6.0607109539932806e-05

>  <CONVERGED>  (421) 
0

>  <ENERGY>  (421) 
-17.746858583985549

$$$$
c3f37d01-5871-4244-b693-80848720f4cf
     RDKit          3D

 16 17  0  0  0  0  0  0  0  0999 V2000
    1.4501   31.2356    1.1435 C   0  0  0  0  0  0  0  0  0  0  0  0
    0.1067   31.8526    0.8525 C   0  0  0  0  0  0  0  0  0  0  0  0
   -0.0296   33.0631    0.7050 O   0  0  0  0  0  0  0  0  0  0  0  0
   -0.9050   30.9490    0.6777 N   0  0  0  0  0  0  0  0  0  0  0  0
   -1.6135   30.7133    1.7236 C   0  0  0  0  0  0  0  0  0  0  0  0
   -1.3823   31.2583    2.9553 N   0  0  0  0  0  0  0  0  0  0  0  0
   -2.2280   30.8016    3.8288 C   0  0  0  0  0  0  0  0  0  0  0  0
   -2.1933   31.2891    5.2490 C   0  0  0  0  0  0  0  0  0  0  0  0
   -3.2775   29.7967    3.3983 C   0  0  2  0  0  0  0  0  0  0  0  0
   -3.1830   28.4693    4.1138 C   0  0  0  0  0  0  0  0  0  0  0  0
   -4.3127   27.6566    4.2194 C   0  0  0  0  0  0  0  0  0  0  0  0
   -4.2022   26.4237    4.8571 C   0  0  0  0  0  0  0  0  0  0  0  0
   -2.9725   26.0270    5.3656 C   0  0  0  0  0  0  0  0  0  0  0  0
   -1.8973   26.8836    5.2139 C   0  0  0  0  0  0  0  0  0  0  0  0
   -1.9761   28.0874    4.6039 N   0  0  0  0  0  0  0  0  0  0  0  0
   -2.9752   29.6233    1.6135 S   0  0  0  0  0  0  0  0  0  0  0  0
  1  2  1  0
  2  3  2  0
  2  4  1  0
  4  5  2  3
  5  6  1  0
  6  7  2  0
  7  8  1  0
  7  9  1  0
  9 10  1  1
 10 11  2  0
 11 12  1  0
 12 13  2  0
 13 14  1  0
 14 15  2  0
  9 16  1  0
 16  5  1  0
 15 10  1  0
M  END
>  <Energy>  (422) 
-17.513185135225676

>  <Energy_Delta>  (422) 
0.23367344880822571

>  <std_smi>  (422) 
CC(=O)Nc1nc(C)c(-c2ccccn2)s1

>  <enum_smi>  (422) 
CC(=O)N=C1N=C(C)C(c2ccccn2)S1

>  <enum_code>  (422) 
T

>  <parent_uuid>  (422) 
38ce1dff-635b-49bf-aa41-0dda23e4ce8b

>  <o3da_score>  (422) 
80.126824416539733

>  <o3da_score_rel>  (422) 
0.31899653009960721

>  <o3da_align>  (422) 
0.48507113063002966

>  <RMSD>  (422) 
6.4820921278189241e-05

>  <CONVERGED>  (422) 
0

>  <ENERGY>  (422) 
-17.513185135320892

$$$$
c3f37d01-5871-4244-b693-80848720f4cf
     RDKit          3D

 16 17  0  0  0  0  0  0  0  0999 V2000
   -4.2764   23.4791    3.7005 C   0  0  0  0  0  0  0  0  0  0  0  0
   -4.7817   24.2469    4.8944 C   0  0  0  0  0  0  0  0  0  0  0  0
   -4.8464   23.7380    6.0092 O   0  0  0  0  0  0  0  0  0  0  0  0
   -5.2399   25.5030    4.6068 N   0  0  0  0  0  0  0  0  0  0  0  0
   -4.3871   26.4485    4.7802 C   0  0  0  0  0  0  0  0  0  0  0  0
   -3.0909   26.2610    5.1706 N   0  0  0  0  0  0  0  0  0  0  0  0
   -2.4538   27.3919    5.2156 C   0  0  0  0  0  0  0  0  0  0  0  0
   -1.0193   27.4403    5.6582 C   0  0  0  0  0  0  0  0  0  0  0  0
   -3.1779   28.6725    4.8522 C   0  0  1  0  0  0  0  0  0  0  0  0
   -2.5785   29.4000    3.6714 C   0  0  0  0  0  0  0  0  0  0  0  0
   -2.7797   30.7737    3.5283 C   0  0  0  0  0  0  0  0  0  0  0  0
   -2.2445   31.4242    2.4196 C   0  0  0  0  0  0  0  0  0  0  0  0
   -1.5311   30.6932    1.4789 C   0  0  0  0  0  0  0  0  0  0  0  0
   -1.3822   29.3338    1.6858 C   0  0  0  0  0  0  0  0  0  0  0  0
   -1.8865   28.6769    2.7543 N   0  0  0  0  0  0  0  0  0  0  0  0
   -4.8706   28.1053    4.5058 S   0  0  0  0  0  0  0  0  0  0  0  0
  1  2  1  0
  2  3  2  0
  2  4  1  0
  4  5  2  3
  5  6  1  0
  6  7  2  0
  7  8  1  0
  7  9  1  0
  9 10  1  6
 10 11  2  0
 11 12  1  0
 12 13  2  0
 13 14  1  0
 14 15  2  0
  9 16  1  0
 16  5  1  0
 15 10  1  0
M  END
>  <Energy>  (423) 
-17.513185134927287

>  <Energy_Delta>  (423) 
0.23367344910661458

>  <std_smi>  (423) 
CC(=O)Nc1nc(C)c(-c2ccccn2)s1

>  <enum_smi>  (423) 
CC(=O)N=C1N=C(C)C(c2ccccn2)S1

>  <enum_code>  (423) 
T

>  <parent_uuid>  (423) 
38ce1dff-635b-49bf-aa41-0dda23e4ce8b

>  <o3da_score>  (423) 
85.159712663976677

>  <o3da_score_rel>  (423) 
0.33903318947057409

>  <o3da_align>  (423) 
0.59750267282232028

>  <RMSD>  (423) 
6.4854236062007764e-05

>  <CONVERGED>  (423) 
0

>  <ENERGY>  (423) 
-17.513185135320086

$$$$
c3f37d01-5871-4244-b693-80848720f4cf
     RDKit          3D

 16 17  0  0  0  0  0  0  0  0999 V2000
   -3.7484   23.3289    3.5591 C   0  0  0  0  0  0  0  0  0  0  0  0
   -3.8437   23.9349    4.9346 C   0  0  0  0  0  0  0  0  0  0  0  0
   -4.7024   23.5842    5.7374 O   0  0  0  0  0  0  0  0  0  0  0  0
   -2.8508   24.8299    5.2247 N   0  0  0  0  0  0  0  0  0  0  0  0
   -3.1737   26.0669    5.1002 C   0  0  0  0  0  0  0  0  0  0  0  0
   -4.3793   26.5116    4.6328 N   0  0  0  0  0  0  0  0  0  0  0  0
   -4.4290   27.8091    4.6334 C   0  0  0  0  0  0  0  0  0  0  0  0
   -5.6790   28.5272    4.2138 C   0  0  0  0  0  0  0  0  0  0  0  0
   -3.2115   28.5973    5.0627 C   0  0  2  0  0  0  0  0  0  0  0  0
   -2.7343   29.5480    3.9906 C   0  0  0  0  0  0  0  0  0  0  0  0
   -2.2258   29.1038    2.7678 C   0  0  0  0  0  0  0  0  0  0  0  0
   -1.8355   30.0412    1.8144 C   0  0  0  0  0  0  0  0  0  0  0  0
   -1.9655   31.3946    2.0946 C   0  0  0  0  0  0  0  0  0  0  0  0
   -2.4881   31.7577    3.3220 C   0  0  0  0  0  0  0  0  0  0  0  0
   -2.8802   30.8705    4.2638 N   0  0  0  0  0  0  0  0  0  0  0  0
   -2.0109   27.3072    5.5071 S   0  0  0  0  0  0  0  0  0  0  0  0
  1  2  1  0
  2  3  2  0
  2  4  1  0
  4  5  2  3
  5  6  1  0
  6  7  2  0
  7  8  1  0
  7  9  1  0
  9 10  1  6
 10 11  2  0
 11 12  1  0
 12 13  2  0
 13 14  1  0
 14 15  2  0
  9 16  1  0
 16  5  1  0
 15 10  1  0
M  END
>  <Energy>  (424) 
-16.981500320550548

>  <Energy_Delta>  (424) 
0.76535826348335334

>  <std_smi>  (424) 
CC(=O)Nc1nc(C)c(-c2ccccn2)s1

>  <enum_smi>  (424) 
CC(=O)N=C1N=C(C)C(c2ccccn2)S1

>  <enum_code>  (424) 
T

>  <parent_uuid>  (424) 
38ce1dff-635b-49bf-aa41-0dda23e4ce8b

>  <o3da_score>  (424) 
75.907439335436763

>  <o3da_score_rel>  (424) 
0.30219854503247329

>  <o3da_align>  (424) 
0.52853842641494075

>  <RMSD>  (424) 
7.1260437695199589e-05

>  <CONVERGED>  (424) 
0

>  <ENERGY>  (424) 
-16.981500320603693

$$$$
c3f37d01-5871-4244-b693-80848720f4cf
     RDKit          3D

 16 17  0  0  0  0  0  0  0  0999 V2000
   -5.0810   27.5215    5.5471 C   0  0  0  0  0  0  0  0  0  0  0  0
   -4.3804   26.6470    4.5408 C   0  0  0  0  0  0  0  0  0  0  0  0
   -4.9512   25.7124    3.9881 O   0  0  0  0  0  0  0  0  0  0  0  0
   -3.0540   26.9355    4.3722 N   0  0  0  0  0  0  0  0  0  0  0  0
   -2.7744   27.6490    3.3414 C   0  0  0  0  0  0  0  0  0  0  0  0
   -3.7030   28.1805    2.4898 N   0  0  0  0  0  0  0  0  0  0  0  0
   -3.1301   28.8397    1.5290 C   0  0  0  0  0  0  0  0  0  0  0  0
   -3.9481   29.4666    0.4373 C   0  0  0  0  0  0  0  0  0  0  0  0
   -1.6234   28.9724    1.5167 C   0  0  1  0  0  0  0  0  0  0  0  0
   -1.1729   30.4139    1.5158 C   0  0  0  0  0  0  0  0  0  0  0  0
   -1.4097   31.2733    2.5912 C   0  0  0  0  0  0  0  0  0  0  0  0
   -0.9930   32.5996    2.5044 C   0  0  0  0  0  0  0  0  0  0  0  0
   -0.3585   33.0417    1.3516 C   0  0  0  0  0  0  0  0  0  0  0  0
   -0.1698   32.1357    0.3245 C   0  0  0  0  0  0  0  0  0  0  0  0
   -0.5683   30.8450    0.3785 N   0  0  0  0  0  0  0  0  0  0  0  0
   -1.1064   28.0278    2.9808 S   0  0  0  0  0  0  0  0  0  0  0  0
  1  2  1  0
  2  3  2  0
  2  4  1  0
  4  5  2  3
  5  6  1  0
  6  7  2  0
  7  8  1  0
  7  9  1  0
  9 10  1  1
 10 11  2  0
 11 12  1  0
 12 13  2  0
 13 14  1  0
 14 15  2  0
  9 16  1  0
 16  5  1  0
 15 10  1  0
M  END
>  <Energy>  (425) 
-16.981500320529623

>  <Energy_Delta>  (425) 
0.76535826350427882

>  <std_smi>  (425) 
CC(=O)Nc1nc(C)c(-c2ccccn2)s1

>  <enum_smi>  (425) 
CC(=O)N=C1N=C(C)C(c2ccccn2)S1

>  <enum_code>  (425) 
T

>  <parent_uuid>  (425) 
38ce1dff-635b-49bf-aa41-0dda23e4ce8b

>  <o3da_score>  (425) 
86.239348833422738

>  <o3da_score_rel>  (425) 
0.34333137792782475

>  <o3da_align>  (425) 
0.5818725978509387

>  <RMSD>  (425) 
6.168640162450887e-05

>  <CONVERGED>  (425) 
0

>  <ENERGY>  (425) 
-16.981500320595867

$$$$
c3f37d01-5871-4244-b693-80848720f4cf
     RDKit          3D

 16 17  0  0  0  0  0  0  0  0999 V2000
   -4.9886   23.6448    6.0830 C   0  0  0  0  0  0  0  0  0  0  0  0
   -4.7299   24.2542    4.7293 C   0  0  0  0  0  0  0  0  0  0  0  0
   -4.2000   23.6144    3.8265 O   0  0  0  0  0  0  0  0  0  0  0  0
   -5.2216   25.5214    4.5766 N   0  0  0  0  0  0  0  0  0  0  0  0
   -4.3784   26.4663    4.7945 C   0  0  0  0  0  0  0  0  0  0  0  0
   -3.0985   26.2790    5.2356 N   0  0  0  0  0  0  0  0  0  0  0  0
   -2.4542   27.4069    5.2686 C   0  0  0  0  0  0  0  0  0  0  0  0
   -1.0285   27.4560    5.7390 C   0  0  0  0  0  0  0  0  0  0  0  0
   -3.1689   28.6880    4.8852 C   0  0  1  0  0  0  0  0  0  0  0  0
   -2.5878   29.3820    3.6757 C   0  0  0  0  0  0  0  0  0  0  0  0
   -2.8545   30.7344    3.4558 C   0  0  0  0  0  0  0  0  0  0  0  0
   -2.3348   31.3514    2.3207 C   0  0  0  0  0  0  0  0  0  0  0  0
   -1.5708   30.6084    1.4304 C   0  0  0  0  0  0  0  0  0  0  0  0
   -1.3559   29.2721    1.7138 C   0  0  0  0  0  0  0  0  0  0  0  0
   -1.8419   28.6502    2.8111 N   0  0  0  0  0  0  0  0  0  0  0  0
   -4.8764   28.1301    4.5946 S   0  0  0  0  0  0  0  0  0  0  0  0
  1  2  1  0
  2  3  2  0
  2  4  1  0
  4  5  2  3
  5  6  1  0
  6  7  2  0
  7  8  1  0
  7  9  1  0
  9 10  1  6
 10 11  2  0
 11 12  1  0
 12 13  2  0
 13 14  1  0
 14 15  2  0
  9 16  1  0
 16  5  1  0
 15 10  1  0
M  END
>  <Energy>  (426) 
-16.556493410885764

>  <Energy_Delta>  (426) 
1.1903651731481375

>  <std_smi>  (426) 
CC(=O)Nc1nc(C)c(-c2ccccn2)s1

>  <enum_smi>  (426) 
CC(=O)N=C1N=C(C)C(c2ccccn2)S1

>  <enum_code>  (426) 
T

>  <parent_uuid>  (426) 
38ce1dff-635b-49bf-aa41-0dda23e4ce8b

>  <o3da_score>  (426) 
86.270901967729316

>  <o3da_score_rel>  (426) 
0.34345699554003961

>  <o3da_align>  (426) 
0.57339735710992168

>  <RMSD>  (426) 
7.3297332081122908e-05

>  <CONVERGED>  (426) 
0

>  <ENERGY>  (426) 
-16.556493410954893

$$$$
c3f37d01-5871-4244-b693-80848720f4cf
     RDKit          3D

 16 17  0  0  0  0  0  0  0  0999 V2000
   -1.4472   31.7575    1.7602 C   0  0  0  0  0  0  0  0  0  0  0  0
   -1.1322   30.2889    1.8815 C   0  0  0  0  0  0  0  0  0  0  0  0
   -0.0049   29.8938    2.1616 O   0  0  0  0  0  0  0  0  0  0  0  0
   -2.1707   29.4594    1.5584 N   0  0  0  0  0  0  0  0  0  0  0  0
   -2.8753   29.0506    2.5523 C   0  0  0  0  0  0  0  0  0  0  0  0
   -2.7007   29.4539    3.8463 N   0  0  0  0  0  0  0  0  0  0  0  0
   -3.4917   28.7989    4.6424 C   0  0  0  0  0  0  0  0  0  0  0  0
   -3.4930   29.0826    6.1174 C   0  0  0  0  0  0  0  0  0  0  0  0
   -4.4602   27.7845    4.0661 C   0  0  2  0  0  0  0  0  0  0  0  0
   -4.2256   26.3685    4.5377 C   0  0  0  0  0  0  0  0  0  0  0  0
   -5.2482   25.4239    4.4356 C   0  0  0  0  0  0  0  0  0  0  0  0
   -5.0058   24.1161    4.8481 C   0  0  0  0  0  0  0  0  0  0  0  0
   -3.7533   23.7788    5.3439 C   0  0  0  0  0  0  0  0  0  0  0  0
   -2.7898   24.7687    5.4081 C   0  0  0  0  0  0  0  0  0  0  0  0
   -3.0002   26.0467    5.0216 N   0  0  0  0  0  0  0  0  0  0  0  0
   -4.2081   27.9547    2.2721 S   0  0  0  0  0  0  0  0  0  0  0  0
  1  2  1  0
  2  3  2  0
  2  4  1  0
  4  5  2  3
  5  6  1  0
  6  7  2  0
  7  8  1  0
  7  9  1  0
  9 10  1  1
 10 11  2  0
 11 12  1  0
 12 13  2  0
 13 14  1  0
 14 15  2  0
  9 16  1  0
 16  5  1  0
 15 10  1  0
M  END
>  <Energy>  (427) 
-16.556493410613804

>  <Energy_Delta>  (427) 
1.1903651734200977

>  <std_smi>  (427) 
CC(=O)Nc1nc(C)c(-c2ccccn2)s1

>  <enum_smi>  (427) 
CC(=O)N=C1N=C(C)C(c2ccccn2)S1

>  <enum_code>  (427) 
T

>  <parent_uuid>  (427) 
38ce1dff-635b-49bf-aa41-0dda23e4ce8b

>  <o3da_score>  (427) 
81.468532654695665

>  <o3da_score_rel>  (427) 
0.32433806554038341

>  <o3da_align>  (427) 
0.58134228803684429

>  <RMSD>  (427) 
6.1528625014133166e-05

>  <CONVERGED>  (427) 
0

>  <ENERGY>  (427) 
-16.556493410955778

$$$$
c3f37d01-5871-4244-b693-80848720f4cf
     RDKit          3D

 16 17  0  0  0  0  0  0  0  0999 V2000
   -1.5872   22.9209    5.9267 C   0  0  0  0  0  0  0  0  0  0  0  0
   -1.5852   24.4247    5.9824 C   0  0  0  0  0  0  0  0  0  0  0  0
   -0.5895   25.0598    6.3135 O   0  0  0  0  0  0  0  0  0  0  0  0
   -2.7977   24.9902    5.7097 N   0  0  0  0  0  0  0  0  0  0  0  0
   -2.9061   25.7010    4.6437 C   0  0  0  0  0  0  0  0  0  0  0  0
   -4.1081   26.3151    4.4109 N   0  0  0  0  0  0  0  0  0  0  0  0
   -4.0503   27.0899    3.3716 C   0  0  0  0  0  0  0  0  0  0  0  0
   -5.2566   27.8591    2.9182 C   0  0  0  0  0  0  0  0  0  0  0  0
   -2.7502   27.2114    2.6135 C   0  0  1  0  0  0  0  0  0  0  0  0
   -2.1993   28.6169    2.6439 C   0  0  0  0  0  0  0  0  0  0  0  0
   -1.7586   29.2244    3.8219 C   0  0  0  0  0  0  0  0  0  0  0  0
   -1.2916   30.5357    3.7751 C   0  0  0  0  0  0  0  0  0  0  0  0
   -1.2798   31.2135    2.5639 C   0  0  0  0  0  0  0  0  0  0  0  0
   -1.7426   30.5502    1.4426 C   0  0  0  0  0  0  0  0  0  0  0  0
   -2.2064   29.2801    1.4580 N   0  0  0  0  0  0  0  0  0  0  0  0
   -1.6927   25.9679    3.4088 S   0  0  0  0  0  0  0  0  0  0  0  0
  1  2  1  0
  2  3  2  0
  2  4  1  0
  4  5  2  3
  5  6  1  0
  6  7  2  0
  7  8  1  0
  7  9  1  0
  9 10  1  1
 10 11  2  0
 11 12  1  0
 12 13  2  0
 13 14  1  0
 14 15  2  0
  9 16  1  0
 16  5  1  0
 15 10  1  0
M  END
>  <Energy>  (428) 
-14.872331485073071

>  <Energy_Delta>  (428) 
2.8745270989608311

>  <std_smi>  (428) 
CC(=O)Nc1nc(C)c(-c2ccccn2)s1

>  <enum_smi>  (428) 
CC(=O)N=C1N=C(C)C(c2ccccn2)S1

>  <enum_code>  (428) 
T

>  <parent_uuid>  (428) 
38ce1dff-635b-49bf-aa41-0dda23e4ce8b

>  <o3da_score>  (428) 
59.759251755032437

>  <o3da_score_rel>  (428) 
0.23791026400977944

>  <o3da_align>  (428) 
0.5479450822506281

>  <RMSD>  (428) 
6.9623123937196789e-05

>  <CONVERGED>  (428) 
0

>  <ENERGY>  (428) 
-14.872331485111808

$$$$
c3f37d01-5871-4244-b693-80848720f4cf
     RDKit          3D

 16 17  0  0  0  0  0  0  0  0999 V2000
   -1.6678   23.8161    7.1268 C   0  0  0  0  0  0  0  0  0  0  0  0
   -1.6208   24.5943    5.8396 C   0  0  0  0  0  0  0  0  0  0  0  0
   -0.5658   24.8176    5.2553 O   0  0  0  0  0  0  0  0  0  0  0  0
   -2.8498   24.9484    5.3618 N   0  0  0  0  0  0  0  0  0  0  0  0
   -3.1449   26.1994    5.3232 C   0  0  0  0  0  0  0  0  0  0  0  0
   -4.3550   26.5487    4.7848 N   0  0  0  0  0  0  0  0  0  0  0  0
   -4.4804   27.8374    4.6990 C   0  0  0  0  0  0  0  0  0  0  0  0
   -5.7334   28.4528    4.1481 C   0  0  0  0  0  0  0  0  0  0  0  0
   -3.3479   28.7213    5.1637 C   0  0  2  0  0  0  0  0  0  0  0  0
   -2.7694   29.5481    4.0404 C   0  0  0  0  0  0  0  0  0  0  0  0
   -2.0966   28.9766    2.9579 C   0  0  0  0  0  0  0  0  0  0  0  0
   -1.6175   29.8028    1.9443 C   0  0  0  0  0  0  0  0  0  0  0  0
   -1.8234   31.1731    2.0257 C   0  0  0  0  0  0  0  0  0  0  0  0
   -2.5082   31.6641    3.1219 C   0  0  0  0  0  0  0  0  0  0  0  0
   -2.9892   30.8868    4.1182 N   0  0  0  0  0  0  0  0  0  0  0  0
   -2.1859   27.5426    5.9102 S   0  0  0  0  0  0  0  0  0  0  0  0
  1  2  1  0
  2  3  2  0
  2  4  1  0
  4  5  2  3
  5  6  1  0
  6  7  2  0
  7  8  1  0
  7  9  1  0
  9 10  1  6
 10 11  2  0
 11 12  1  0
 12 13  2  0
 13 14  1  0
 14 15  2  0
  9 16  1  0
 16  5  1  0
 15 10  1  0
M  END
>  <Energy>  (429) 
-14.872331484482066

>  <Energy_Delta>  (429) 
2.8745270995518357

>  <std_smi>  (429) 
CC(=O)Nc1nc(C)c(-c2ccccn2)s1

>  <enum_smi>  (429) 
CC(=O)N=C1N=C(C)C(c2ccccn2)S1

>  <enum_code>  (429) 
T

>  <parent_uuid>  (429) 
38ce1dff-635b-49bf-aa41-0dda23e4ce8b

>  <o3da_score>  (429) 
78.860365840472923

>  <o3da_score_rel>  (429) 
0.31395457449707354

>  <o3da_align>  (429) 
0.56341373537883943

>  <RMSD>  (429) 
6.5298840231561015e-05

>  <CONVERGED>  (429) 
0

>  <ENERGY>  (429) 
-14.872331485098314

$$$$
c3f37d01-5871-4244-b693-80848720f4cf
     RDKit          3D

 16 17  0  0  0  0  0  0  0  0999 V2000
   -0.5778   25.2925    7.3194 C   0  0  0  0  0  0  0  0  0  0  0  0
   -1.6221   24.7712    6.3690 C   0  0  0  0  0  0  0  0  0  0  0  0
   -1.4341   23.7672    5.6895 O   0  0  0  0  0  0  0  0  0  0  0  0
   -2.7943   25.4698    6.4007 N   0  0  0  0  0  0  0  0  0  0  0  0
   -3.1139   26.1610    5.3635 C   0  0  0  0  0  0  0  0  0  0  0  0
   -4.3090   26.8273    5.3917 N   0  0  0  0  0  0  0  0  0  0  0  0
   -4.4862   27.5286    4.3142 C   0  0  0  0  0  0  0  0  0  0  0  0
   -5.7483   28.3191    4.1195 C   0  0  0  0  0  0  0  0  0  0  0  0
   -3.4304   27.5097    3.2313 C   0  0  1  0  0  0  0  0  0  0  0  0
   -2.8436   28.8661    2.9190 C   0  0  0  0  0  0  0  0  0  0  0  0
   -2.3058   29.1151    1.6555 C   0  0  0  0  0  0  0  0  0  0  0  0
   -1.7428   30.3613    1.3931 C   0  0  0  0  0  0  0  0  0  0  0  0
   -1.7212   31.3240    2.3937 C   0  0  0  0  0  0  0  0  0  0  0  0
   -2.2649   30.9987    3.6230 C   0  0  0  0  0  0  0  0  0  0  0  0
   -2.8207   29.7991    3.9045 N   0  0  0  0  0  0  0  0  0  0  0  0
   -2.1804   26.3723    3.8970 S   0  0  0  0  0  0  0  0  0  0  0  0
  1  2  1  0
  2  3  2  0
  2  4  1  0
  4  5  2  3
  5  6  1  0
  6  7  2  0
  7  8  1  0
  7  9  1  0
  9 10  1  1
 10 11  2  0
 11 12  1  0
 12 13  2  0
 13 14  1  0
 14 15  2  0
  9 16  1  0
 16  5  1  0
 15 10  1  0
M  END
>  <Energy>  (430) 
-14.417018911594553

>  <Energy_Delta>  (430) 
3.3298396724393484

>  <std_smi>  (430) 
CC(=O)Nc1nc(C)c(-c2ccccn2)s1

>  <enum_smi>  (430) 
CC(=O)N=C1N=C(C)C(c2ccccn2)S1

>  <enum_code>  (430) 
T

>  <parent_uuid>  (430) 
38ce1dff-635b-49bf-aa41-0dda23e4ce8b

>  <o3da_score>  (430) 
69.122900599878704

>  <o3da_score_rel>  (430) 
0.27518831056069937

>  <o3da_align>  (430) 
0.52140881115762361

>  <RMSD>  (430) 
6.1568337886870424e-05

>  <CONVERGED>  (430) 
0

>  <ENERGY>  (430) 
-14.417018911864945

$$$$
c3f37d01-5871-4244-b693-80848720f4cf
     RDKit          3D

 16 17  0  0  0  0  0  0  0  0999 V2000
   -0.6926   23.7512    4.8731 C   0  0  0  0  0  0  0  0  0  0  0  0
   -1.5115   24.5100    5.8828 C   0  0  0  0  0  0  0  0  0  0  0  0
   -1.1024   24.7206    7.0200 O   0  0  0  0  0  0  0  0  0  0  0  0
   -2.7524   24.8605    5.4348 N   0  0  0  0  0  0  0  0  0  0  0  0
   -2.9965   26.1100    5.2480 C   0  0  0  0  0  0  0  0  0  0  0  0
   -4.2552   26.4531    4.8346 N   0  0  0  0  0  0  0  0  0  0  0  0
   -4.3549   27.7306    4.6293 C   0  0  0  0  0  0  0  0  0  0  0  0
   -5.6615   28.3326    4.1977 C   0  0  0  0  0  0  0  0  0  0  0  0
   -3.1554   28.6196    4.8713 C   0  0  2  0  0  0  0  0  0  0  0  0
   -2.7000   29.3857    3.6517 C   0  0  0  0  0  0  0  0  0  0  0  0
   -2.0147   30.5917    3.8058 C   0  0  0  0  0  0  0  0  0  0  0  0
   -1.5765   31.2709    2.6720 C   0  0  0  0  0  0  0  0  0  0  0  0
   -1.8228   30.7314    1.4163 C   0  0  0  0  0  0  0  0  0  0  0  0
   -2.4993   29.5272    1.3456 C   0  0  0  0  0  0  0  0  0  0  0  0
   -2.9390   28.8482    2.4285 N   0  0  0  0  0  0  0  0  0  0  0  0
   -1.8881   27.4514    5.4447 S   0  0  0  0  0  0  0  0  0  0  0  0
  1  2  1  0
  2  3  2  0
  2  4  1  0
  4  5  2  3
  5  6  1  0
  6  7  2  0
  7  8  1  0
  7  9  1  0
  9 10  1  6
 10 11  2  0
 11 12  1  0
 12 13  2  0
 13 14  1  0
 14 15  2  0
  9 16  1  0
 16  5  1  0
 15 10  1  0
M  END
>  <Energy>  (431) 
-14.417018910762096

>  <Energy_Delta>  (431) 
3.3298396732718061

>  <std_smi>  (431) 
CC(=O)Nc1nc(C)c(-c2ccccn2)s1

>  <enum_smi>  (431) 
CC(=O)N=C1N=C(C)C(c2ccccn2)S1

>  <enum_code>  (431) 
T

>  <parent_uuid>  (431) 
38ce1dff-635b-49bf-aa41-0dda23e4ce8b

>  <o3da_score>  (431) 
84.709134599190392

>  <o3da_score_rel>  (431) 
0.33723937272752402

>  <o3da_align>  (431) 
0.58495389212156268

>  <RMSD>  (431) 
6.5992436631798535e-05

>  <CONVERGED>  (431) 
0

>  <ENERGY>  (431) 
-14.417018911881007

$$$$
c3f37d01-5871-4244-b693-80848720f4cf
     RDKit          3D

 16 17  0  0  0  0  0  0  0  0999 V2000
   -3.7972   27.7185    6.6433 C   0  0  0  0  0  0  0  0  0  0  0  0
   -3.7871   27.0826    5.2792 C   0  0  0  0  0  0  0  0  0  0  0  0
   -3.2637   25.9919    5.0788 O   0  0  0  0  0  0  0  0  0  0  0  0
   -4.4706   27.7940    4.3350 N   0  0  0  0  0  0  0  0  0  0  0  0
   -3.8063   28.2981    3.3559 C   0  0  0  0  0  0  0  0  0  0  0  0
   -4.5129   28.9693    2.3933 N   0  0  0  0  0  0  0  0  0  0  0  0
   -3.7345   29.4276    1.4621 C   0  0  0  0  0  0  0  0  0  0  0  0
   -4.3032   30.1503    0.2755 C   0  0  0  0  0  0  0  0  0  0  0  0
   -2.2428   29.2282    1.5817 C   0  0  1  0  0  0  0  0  0  0  0  0
   -1.4823   30.5331    1.5794 C   0  0  0  0  0  0  0  0  0  0  0  0
   -1.6602   31.5029    2.5692 C   0  0  0  0  0  0  0  0  0  0  0  0
   -0.9437   32.6944    2.4879 C   0  0  0  0  0  0  0  0  0  0  0  0
   -0.0732   32.8962    1.4254 C   0  0  0  0  0  0  0  0  0  0  0  0
    0.0422   31.8946    0.4793 C   0  0  0  0  0  0  0  0  0  0  0  0
   -0.6442   30.7310    0.5293 N   0  0  0  0  0  0  0  0  0  0  0  0
   -2.0718   28.2757    3.1187 S   0  0  0  0  0  0  0  0  0  0  0  0
  1  2  1  0
  2  3  2  0
  2  4  1  0
  4  5  2  3
  5  6  1  0
  6  7  2  0
  7  8  1  0
  7  9  1  0
  9 10  1  1
 10 11  2  0
 11 12  1  0
 12 13  2  0
 13 14  1  0
 14 15  2  0
  9 16  1  0
 16  5  1  0
 15 10  1  0
M  END
>  <Energy>  (432) 
-14.040090461807825

>  <Energy_Delta>  (432) 
3.7067681222260767

>  <std_smi>  (432) 
CC(=O)Nc1nc(C)c(-c2ccccn2)s1

>  <enum_smi>  (432) 
CC(=O)N=C1N=C(C)C(c2ccccn2)S1

>  <enum_code>  (432) 
T

>  <parent_uuid>  (432) 
38ce1dff-635b-49bf-aa41-0dda23e4ce8b

>  <o3da_score>  (432) 
86.38704737988509

>  <o3da_score_rel>  (432) 
0.34391938730128147

>  <o3da_align>  (432) 
0.42782375116407945

>  <RMSD>  (432) 
5.7922467730601834e-05

>  <CONVERGED>  (432) 
0

>  <ENERGY>  (432) 
-14.04009046199379

$$$$
c3f37d01-5871-4244-b693-80848720f4cf
     RDKit          3D

 16 17  0  0  0  0  0  0  0  0999 V2000
    2.2707   31.2310   -1.8169 C   0  0  0  0  0  0  0  0  0  0  0  0
    0.8133   31.4940   -1.5474 C   0  0  0  0  0  0  0  0  0  0  0  0
   -0.0708   30.9364   -2.1892 O   0  0  0  0  0  0  0  0  0  0  0  0
    0.5961   32.4474   -0.5949 N   0  0  0  0  0  0  0  0  0  0  0  0
    0.0180   32.0947    0.4991 C   0  0  0  0  0  0  0  0  0  0  0  0
   -0.2098   33.0658    1.4365 N   0  0  0  0  0  0  0  0  0  0  0  0
   -0.8919   32.6024    2.4390 C   0  0  0  0  0  0  0  0  0  0  0  0
   -1.2412   33.4907    3.5987 C   0  0  0  0  0  0  0  0  0  0  0  0
   -1.2837   31.1407    2.4615 C   0  0  1  0  0  0  0  0  0  0  0  0
   -2.7748   30.8970    2.4300 C   0  0  0  0  0  0  0  0  0  0  0  0
   -3.2836   29.6583    2.8247 C   0  0  0  0  0  0  0  0  0  0  0  0
   -4.6573   29.4391    2.7628 C   0  0  0  0  0  0  0  0  0  0  0  0
   -5.4890   30.4521    2.3045 C   0  0  0  0  0  0  0  0  0  0  0  0
   -4.9097   31.6495    1.9263 C   0  0  0  0  0  0  0  0  0  0  0  0
   -3.5813   31.8920    1.9836 N   0  0  0  0  0  0  0  0  0  0  0  0
   -0.4534   30.4795    0.9848 S   0  0  0  0  0  0  0  0  0  0  0  0
  1  2  1  0
  2  3  2  0
  2  4  1  0
  4  5  2  3
  5  6  1  0
  6  7  2  0
  7  8  1  0
  7  9  1  0
  9 10  1  6
 10 11  2  0
 11 12  1  0
 12 13  2  0
 13 14  1  0
 14 15  2  0
  9 16  1  0
 16  5  1  0
 15 10  1  0
M  END
>  <Energy>  (433) 
-13.48714100380381

>  <Energy_Delta>  (433) 
4.2597175802300917

>  <std_smi>  (433) 
CC(=O)Nc1nc(C)c(-c2ccccn2)s1

>  <enum_smi>  (433) 
CC(=O)N=C1N=C(C)C(c2ccccn2)S1

>  <enum_code>  (433) 
T

>  <parent_uuid>  (433) 
38ce1dff-635b-49bf-aa41-0dda23e4ce8b

>  <o3da_score>  (433) 
72.392535393674137

>  <o3da_score_rel>  (433) 
0.2882052017392594

>  <o3da_align>  (433) 
0.39702818469826723

>  <RMSD>  (433) 
6.6927284467783928e-05

>  <CONVERGED>  (433) 
0

>  <ENERGY>  (433) 
-13.487141003952171

$$$$
c3f37d01-5871-4244-b693-80848720f4cf
     RDKit          3D

 16 17  0  0  0  0  0  0  0  0999 V2000
   -1.5991   24.0941    7.5297 C   0  0  0  0  0  0  0  0  0  0  0  0
   -1.5542   24.7055    6.1549 C   0  0  0  0  0  0  0  0  0  0  0  0
   -0.4959   24.8658    5.5560 O   0  0  0  0  0  0  0  0  0  0  0  0
   -2.7873   24.9796    5.6372 N   0  0  0  0  0  0  0  0  0  0  0  0
   -3.0944   26.2089    5.4140 C   0  0  0  0  0  0  0  0  0  0  0  0
   -4.3270   26.4661    4.8771 N   0  0  0  0  0  0  0  0  0  0  0  0
   -4.4676   27.7270    4.6022 C   0  0  0  0  0  0  0  0  0  0  0  0
   -5.7536   28.2415    4.0215 C   0  0  0  0  0  0  0  0  0  0  0  0
   -3.3459   28.6899    4.9269 C   0  0  2  0  0  0  0  0  0  0  0  0
   -2.7386   29.3654    3.7193 C   0  0  0  0  0  0  0  0  0  0  0  0
   -1.9848   30.5293    3.8816 C   0  0  0  0  0  0  0  0  0  0  0  0
   -1.4074   31.1243    2.7628 C   0  0  0  0  0  0  0  0  0  0  0  0
   -1.5874   30.5450    1.5138 C   0  0  0  0  0  0  0  0  0  0  0  0
   -2.3427   29.3894    1.4344 C   0  0  0  0  0  0  0  0  0  0  0  0
   -2.9208   28.7954    2.5021 N   0  0  0  0  0  0  0  0  0  0  0  0
   -2.1460   27.6318    5.7917 S   0  0  0  0  0  0  0  0  0  0  0  0
  1  2  1  0
  2  3  2  0
  2  4  1  0
  4  5  2  3
  5  6  1  0
  6  7  2  0
  7  8  1  0
  7  9  1  0
  9 10  1  6
 10 11  2  0
 11 12  1  0
 12 13  2  0
 13 14  1  0
 14 15  2  0
  9 16  1  0
 16  5  1  0
 15 10  1  0
M  END
>  <Energy>  (434) 
-13.487141003164437

>  <Energy_Delta>  (434) 
4.2597175808694647

>  <std_smi>  (434) 
CC(=O)Nc1nc(C)c(-c2ccccn2)s1

>  <enum_smi>  (434) 
CC(=O)N=C1N=C(C)C(c2ccccn2)S1

>  <enum_code>  (434) 
T

>  <parent_uuid>  (434) 
38ce1dff-635b-49bf-aa41-0dda23e4ce8b

>  <o3da_score>  (434) 
87.488397055406764

>  <o3da_score_rel>  (434) 
0.34830402038110214

>  <o3da_align>  (434) 
0.49615057636699011

>  <RMSD>  (434) 
6.6330088344781669e-05

>  <CONVERGED>  (434) 
0

>  <ENERGY>  (434) 
-13.487141003955619

$$$$
25409a29-9c1e-4c10-a7f2-b17db99124fb
     RDKit          3D

 16 17  0  0  0  0  0  0  0  0999 V2000
    0.6196   32.6063   -0.6742 C   0  0  0  0  0  0  0  0  0  0  0  0
   -0.0949   32.1342    0.5636 C   0  0  0  0  0  0  0  0  0  0  0  0
   -0.2336   32.8677    1.5410 O   0  0  0  0  0  0  0  0  0  0  0  0
   -0.5463   30.8438    0.4610 N   0  0  0  0  0  0  0  0  0  0  0  0
   -1.1785   30.3575    1.4665 C   0  0  0  0  0  0  0  0  0  0  0  0
   -1.5209   30.8640    2.6887 N   0  0  0  0  0  0  0  0  0  0  0  0
   -2.2384   30.0404    3.5381 C   0  0  0  0  0  0  0  0  0  0  0  0
   -2.6287   30.5539    4.8857 C   0  0  0  0  0  0  0  0  0  0  0  0
   -2.4750   28.8173    3.0114 C   0  0  0  0  0  0  0  0  0  0  0  0
   -3.2388   27.6960    3.5785 C   0  0  0  0  0  0  0  0  0  0  0  0
   -2.8968   26.3646    3.3408 C   0  0  0  0  0  0  0  0  0  0  0  0
   -3.6708   25.3502    3.9024 C   0  0  0  0  0  0  0  0  0  0  0  0
   -4.7665   25.6844    4.6855 C   0  0  0  0  0  0  0  0  0  0  0  0
   -5.0416   27.0257    4.8779 C   0  0  0  0  0  0  0  0  0  0  0  0
   -4.3065   28.0288    4.3488 N   0  0  0  0  0  0  0  0  0  0  0  0
   -1.7905   28.6859    1.3855 S   0  0  0  0  0  0  0  0  0  0  0  0
  1  2  1  0
  2  3  2  0
  2  4  1  0
  4  5  2  3
  5  6  1  0
  6  7  1  0
  7  8  1  0
  7  9  2  0
  9 10  1  0
 10 11  2  0
 11 12  1  0
 12 13  2  0
 13 14  1  0
 14 15  2  0
  9 16  1  0
 16  5  1  0
 15 10  1  0
M  END
>  <Energy>  (435) 
-2.5269241894623971

>  <Energy_Delta>  (435) 
0

>  <std_smi>  (435) 
CC(=O)Nc1nc(C)c(-c2ccccn2)s1

>  <enum_smi>  (435) 
CC(=O)N=c1[nH]c(C)c(-c2ccccn2)s1

>  <enum_code>  (435) 
T

>  <parent_uuid>  (435) 
38ce1dff-635b-49bf-aa41-0dda23e4ce8b

>  <o3da_score>  (435) 
96.572535832513381

>  <o3da_score_rel>  (435) 
0.38446929674068964

>  <o3da_align>  (435) 
0.48825382856229171

>  <RMSD>  (435) 
6.392641917659091e-05

>  <CONVERGED>  (435) 
0

>  <ENERGY>  (435) 
-2.5269241895058139

$$$$
25409a29-9c1e-4c10-a7f2-b17db99124fb
     RDKit          3D

 16 17  0  0  0  0  0  0  0  0999 V2000
    0.3425   33.2614    0.2454 C   0  0  0  0  0  0  0  0  0  0  0  0
   -0.2914   31.9877    0.7367 C   0  0  0  0  0  0  0  0  0  0  0  0
   -0.2350   30.9501    0.0788 O   0  0  0  0  0  0  0  0  0  0  0  0
   -0.9075   32.1317    1.9529 N   0  0  0  0  0  0  0  0  0  0  0  0
   -1.4863   31.0986    2.4478 C   0  0  0  0  0  0  0  0  0  0  0  0
   -1.6334   29.8116    2.0121 N   0  0  0  0  0  0  0  0  0  0  0  0
   -2.3545   28.9480    2.8175 C   0  0  0  0  0  0  0  0  0  0  0  0
   -2.5350   27.5309    2.3801 C   0  0  0  0  0  0  0  0  0  0  0  0
   -2.7948   29.5318    3.9555 C   0  0  0  0  0  0  0  0  0  0  0  0
   -3.6279   28.9641    5.0259 C   0  0  0  0  0  0  0  0  0  0  0  0
   -3.4803   29.3355    6.3624 C   0  0  0  0  0  0  0  0  0  0  0  0
   -4.3110   28.7645    7.3255 C   0  0  0  0  0  0  0  0  0  0  0  0
   -5.2687   27.8390    6.9358 C   0  0  0  0  0  0  0  0  0  0  0  0
   -5.3539   27.5194    5.5933 C   0  0  0  0  0  0  0  0  0  0  0  0
   -4.5596   28.0548    4.6398 N   0  0  0  0  0  0  0  0  0  0  0  0
   -2.3058   31.2305    4.0246 S   0  0  0  0  0  0  0  0  0  0  0  0
  1  2  1  0
  2  3  2  0
  2  4  1  0
  4  5  2  3
  5  6  1  0
  6  7  1  0
  7  8  1  0
  7  9  2  0
  9 10  1  0
 10 11  2  0
 11 12  1  0
 12 13  2  0
 13 14  1  0
 14 15  2  0
  9 16  1  0
 16  5  1  0
 15 10  1  0
M  END
>  <Energy>  (436) 
-2.5269241893631333

>  <Energy_Delta>  (436) 
9.9263708364105696e-11

>  <std_smi>  (436) 
CC(=O)Nc1nc(C)c(-c2ccccn2)s1

>  <enum_smi>  (436) 
CC(=O)N=c1[nH]c(C)c(-c2ccccn2)s1

>  <enum_code>  (436) 
T

>  <parent_uuid>  (436) 
38ce1dff-635b-49bf-aa41-0dda23e4ce8b

>  <o3da_score>  (436) 
75.992061573663733

>  <o3da_score_rel>  (436) 
0.30253543845811731

>  <o3da_align>  (436) 
0.50031134817558909

>  <RMSD>  (436) 
7.2261678249204445e-05

>  <CONVERGED>  (436) 
0

>  <ENERGY>  (436) 
-2.5269241895013321

$$$$
25409a29-9c1e-4c10-a7f2-b17db99124fb
     RDKit          3D

 16 17  0  0  0  0  0  0  0  0999 V2000
    1.5860   31.7882    1.0557 C   0  0  0  0  0  0  0  0  0  0  0  0
    0.1029   31.9883    0.8935 C   0  0  0  0  0  0  0  0  0  0  0  0
   -0.4202   33.0897    1.0250 O   0  0  0  0  0  0  0  0  0  0  0  0
   -0.5721   30.8595    0.5136 N   0  0  0  0  0  0  0  0  0  0  0  0
   -1.3334   30.2985    1.3908 C   0  0  0  0  0  0  0  0  0  0  0  0
   -2.1030   29.1907    1.1636 N   0  0  0  0  0  0  0  0  0  0  0  0
   -2.8582   28.7168    2.2237 C   0  0  0  0  0  0  0  0  0  0  0  0
   -3.7426   27.5310    2.0132 C   0  0  0  0  0  0  0  0  0  0  0  0
   -2.7027   29.4475    3.3505 C   0  0  0  0  0  0  0  0  0  0  0  0
   -3.2895   29.2346    4.6809 C   0  0  0  0  0  0  0  0  0  0  0  0
   -3.6587   30.2938    5.5099 C   0  0  0  0  0  0  0  0  0  0  0  0
   -4.2015   30.0202    6.7643 C   0  0  0  0  0  0  0  0  0  0  0  0
   -4.3625   28.7008    7.1631 C   0  0  0  0  0  0  0  0  0  0  0  0
   -3.9749   27.7050    6.2852 C   0  0  0  0  0  0  0  0  0  0  0  0
   -3.4493   27.9412    5.0626 N   0  0  0  0  0  0  0  0  0  0  0  0
   -1.5634   30.7716    3.0914 S   0  0  0  0  0  0  0  0  0  0  0  0
  1  2  1  0
  2  3  2  0
  2  4  1  0
  4  5  2  3
  5  6  1  0
  6  7  1  0
  7  8  1  0
  7  9  2  0
  9 10  1  0
 10 11  2  0
 11 12  1  0
 12 13  2  0
 13 14  1  0
 14 15  2  0
  9 16  1  0
 16  5  1  0
 15 10  1  0
M  END
>  <Energy>  (437) 
4.6413485773403291

>  <Energy_Delta>  (437) 
7.1682727668027262

>  <std_smi>  (437) 
CC(=O)Nc1nc(C)c(-c2ccccn2)s1

>  <enum_smi>  (437) 
CC(=O)N=c1[nH]c(C)c(-c2ccccn2)s1

>  <enum_code>  (437) 
T

>  <parent_uuid>  (437) 
38ce1dff-635b-49bf-aa41-0dda23e4ce8b

>  <o3da_score>  (437) 
72.939724928526459

>  <o3da_score_rel>  (437) 
0.29038364278189083

>  <o3da_align>  (437) 
0.50266505931953043

>  <RMSD>  (437) 
5.300190336300322e-05

>  <CONVERGED>  (437) 
0

>  <ENERGY>  (437) 
4.641348577119345

$$$$
25409a29-9c1e-4c10-a7f2-b17db99124fb
     RDKit          3D

 16 17  0  0  0  0  0  0  0  0999 V2000
   -1.3375   32.8441   -0.4489 C   0  0  0  0  0  0  0  0  0  0  0  0
   -0.5307   32.1686    0.6276 C   0  0  0  0  0  0  0  0  0  0  0  0
    0.1531   32.8065    1.4210 O   0  0  0  0  0  0  0  0  0  0  0  0
   -0.5735   30.8012    0.5790 N   0  0  0  0  0  0  0  0  0  0  0  0
   -1.2342   30.1938    1.5055 C   0  0  0  0  0  0  0  0  0  0  0  0
   -1.3445   28.8356    1.6244 N   0  0  0  0  0  0  0  0  0  0  0  0
   -2.1000   28.3523    2.6801 C   0  0  0  0  0  0  0  0  0  0  0  0
   -2.2191   26.8752    2.8723 C   0  0  0  0  0  0  0  0  0  0  0  0
   -2.6281   29.3346    3.4442 C   0  0  0  0  0  0  0  0  0  0  0  0
   -3.5164   29.2252    4.6097 C   0  0  0  0  0  0  0  0  0  0  0  0
   -3.4420   30.1070    5.6879 C   0  0  0  0  0  0  0  0  0  0  0  0
   -4.3219   29.9513    6.7576 C   0  0  0  0  0  0  0  0  0  0  0  0
   -5.2542   28.9237    6.7279 C   0  0  0  0  0  0  0  0  0  0  0  0
   -5.2655   28.0886    5.6257 C   0  0  0  0  0  0  0  0  0  0  0  0
   -4.4225   28.2143    4.5766 N   0  0  0  0  0  0  0  0  0  0  0  0
   -2.1810   30.9260    2.8232 S   0  0  0  0  0  0  0  0  0  0  0  0
  1  2  1  0
  2  3  2  0
  2  4  1  0
  4  5  2  3
  5  6  1  0
  6  7  1  0
  7  8  1  0
  7  9  2  0
  9 10  1  0
 10 11  2  0
 11 12  1  0
 12 13  2  0
 13 14  1  0
 14 15  2  0
  9 16  1  0
 16  5  1  0
 15 10  1  0
M  END
>  <Energy>  (438) 
4.6413485775428356

>  <Energy_Delta>  (438) 
7.1682727670052326

>  <std_smi>  (438) 
CC(=O)Nc1nc(C)c(-c2ccccn2)s1

>  <enum_smi>  (438) 
CC(=O)N=c1[nH]c(C)c(-c2ccccn2)s1

>  <enum_code>  (438) 
T

>  <parent_uuid>  (438) 
38ce1dff-635b-49bf-aa41-0dda23e4ce8b

>  <o3da_score>  (438) 
84.059251590038755

>  <o3da_score_rel>  (438) 
0.33465209404276847

>  <o3da_align>  (438) 
0.47615086773228771

>  <RMSD>  (438) 
6.5617540376264967e-05

>  <CONVERGED>  (438) 
0

>  <ENERGY>  (438) 
4.6413485771555729

$$$$
25409a29-9c1e-4c10-a7f2-b17db99124fb
     RDKit          3D

 16 17  0  0  0  0  0  0  0  0999 V2000
   -5.0030   25.8241    4.3725 C   0  0  0  0  0  0  0  0  0  0  0  0
   -5.3691   27.2831    4.3147 C   0  0  0  0  0  0  0  0  0  0  0  0
   -6.2571   27.6983    3.5782 O   0  0  0  0  0  0  0  0  0  0  0  0
   -4.6827   28.0633    5.2058 N   0  0  0  0  0  0  0  0  0  0  0  0
   -3.7923   28.8672    4.7317 C   0  0  0  0  0  0  0  0  0  0  0  0
   -3.0469   29.7354    5.4809 N   0  0  0  0  0  0  0  0  0  0  0  0
   -2.1585   30.5540    4.8024 C   0  0  0  0  0  0  0  0  0  0  0  0
   -1.3456   31.5395    5.5780 C   0  0  0  0  0  0  0  0  0  0  0  0
   -2.1345   30.3204    3.4703 C   0  0  0  0  0  0  0  0  0  0  0  0
   -1.3727   31.0145    2.4196 C   0  0  0  0  0  0  0  0  0  0  0  0
   -0.9466   30.3739    1.2556 C   0  0  0  0  0  0  0  0  0  0  0  0
   -0.2393   31.0977    0.2965 C   0  0  0  0  0  0  0  0  0  0  0  0
    0.0264   32.4415    0.5168 C   0  0  0  0  0  0  0  0  0  0  0  0
   -0.4254   33.0070    1.6945 C   0  0  0  0  0  0  0  0  0  0  0  0
   -1.1090   32.3279    2.6424 N   0  0  0  0  0  0  0  0  0  0  0  0
   -3.2762   29.0421    3.0379 S   0  0  0  0  0  0  0  0  0  0  0  0
  1  2  1  0
  2  3  2  0
  2  4  1  0
  4  5  2  3
  5  6  1  0
  6  7  1  0
  7  8  1  0
  7  9  2  0
  9 10  1  0
 10 11  2  0
 11 12  1  0
 12 13  2  0
 13 14  1  0
 14 15  2  0
  9 16  1  0
 16  5  1  0
 15 10  1  0
M  END
>  <Energy>  (439) 
5.1633537377581309

>  <Energy_Delta>  (439) 
7.6902779272205279

>  <std_smi>  (439) 
CC(=O)Nc1nc(C)c(-c2ccccn2)s1

>  <enum_smi>  (439) 
CC(=O)N=c1[nH]c(C)c(-c2ccccn2)s1

>  <enum_code>  (439) 
T

>  <parent_uuid>  (439) 
38ce1dff-635b-49bf-aa41-0dda23e4ce8b

>  <o3da_score>  (439) 
75.561624093499091

>  <o3da_score_rel>  (439) 
0.30082180430878996

>  <o3da_align>  (439) 
0.42013834581839365

>  <RMSD>  (439) 
6.6913693791541092e-05

>  <CONVERGED>  (439) 
0

>  <ENERGY>  (439) 
5.1633537376437602

$$$$
25409a29-9c1e-4c10-a7f2-b17db99124fb
     RDKit          3D

 16 17  0  0  0  0  0  0  0  0999 V2000
   -2.0392   31.3687    6.0154 C   0  0  0  0  0  0  0  0  0  0  0  0
   -2.3762   30.6049    4.7627 C   0  0  0  0  0  0  0  0  0  0  0  0
   -1.6367   30.6081    3.7847 O   0  0  0  0  0  0  0  0  0  0  0  0
   -3.5993   29.9913    4.7989 N   0  0  0  0  0  0  0  0  0  0  0  0
   -3.6182   28.7047    4.8906 C   0  0  0  0  0  0  0  0  0  0  0  0
   -4.7521   27.9400    4.9031 N   0  0  0  0  0  0  0  0  0  0  0  0
   -4.5872   26.5660    4.9716 C   0  0  0  0  0  0  0  0  0  0  0  0
   -5.7981   25.6902    4.9570 C   0  0  0  0  0  0  0  0  0  0  0  0
   -3.2909   26.1923    5.0684 C   0  0  0  0  0  0  0  0  0  0  0  0
   -2.7153   24.8382    5.1049 C   0  0  0  0  0  0  0  0  0  0  0  0
   -1.5309   24.5454    5.7818 C   0  0  0  0  0  0  0  0  0  0  0  0
   -1.0371   23.2416    5.7635 C   0  0  0  0  0  0  0  0  0  0  0  0
   -1.7320   22.2602    5.0716 C   0  0  0  0  0  0  0  0  0  0  0  0
   -2.8992   22.6248    4.4268 C   0  0  0  0  0  0  0  0  0  0  0  0
   -3.4022   23.8793    4.4321 N   0  0  0  0  0  0  0  0  0  0  0  0
   -2.2291   27.6054    5.0563 S   0  0  0  0  0  0  0  0  0  0  0  0
  1  2  1  0
  2  3  2  0
  2  4  1  0
  4  5  2  3
  5  6  1  0
  6  7  1  0
  7  8  1  0
  7  9  2  0
  9 10  1  0
 10 11  2  0
 11 12  1  0
 12 13  2  0
 13 14  1  0
 14 15  2  0
  9 16  1  0
 16  5  1  0
 15 10  1  0
M  END
>  <Energy>  (440) 
5.1633537378083982

>  <Energy_Delta>  (440) 
7.6902779272707953

>  <std_smi>  (440) 
CC(=O)Nc1nc(C)c(-c2ccccn2)s1

>  <enum_smi>  (440) 
CC(=O)N=c1[nH]c(C)c(-c2ccccn2)s1

>  <enum_code>  (440) 
T

>  <parent_uuid>  (440) 
38ce1dff-635b-49bf-aa41-0dda23e4ce8b

>  <o3da_score>  (440) 
68.578304228007326

>  <o3da_score_rel>  (440) 
0.27302019327667099

>  <o3da_align>  (440) 
0.46132775865280529

>  <RMSD>  (440) 
6.9925368812534582e-05

>  <CONVERGED>  (440) 
0

>  <ENERGY>  (440) 
5.1633537376418248

$$$$
f7bda8ce-f203-4379-9967-91abaa5c45b6
     RDKit          3D

 16 17  0  0  0  0  0  0  0  0999 V2000
    0.7976   32.5544   -0.7663 C   0  0  0  0  0  0  0  0  0  0  0  0
   -0.0076   32.0979    0.4069 C   0  0  0  0  0  0  0  0  0  0  0  0
   -0.2972   33.1142    1.2464 O   0  0  0  0  0  0  0  0  0  0  0  0
   -0.3614   30.8657    0.5580 N   0  0  0  0  0  0  0  0  0  0  0  0
   -1.0921   30.5202    1.6451 C   0  0  0  0  0  0  0  0  0  0  0  0
   -1.4929   31.3063    2.6239 N   0  0  0  0  0  0  0  0  0  0  0  0
   -2.2255   30.5907    3.5643 C   0  0  0  0  0  0  0  0  0  0  0  0
   -2.7572   31.3391    4.7370 C   0  0  0  0  0  0  0  0  0  0  0  0
   -2.3694   29.2341    3.2979 C   0  0  0  0  0  0  0  0  0  0  0  0
   -3.0771   28.1914    4.0527 C   0  0  0  0  0  0  0  0  0  0  0  0
   -2.7446   26.8390    3.9994 C   0  0  0  0  0  0  0  0  0  0  0  0
   -3.4820   25.9303    4.7570 C   0  0  0  0  0  0  0  0  0  0  0  0
   -4.5269   26.3908    5.5464 C   0  0  0  0  0  0  0  0  0  0  0  0
   -4.7900   27.7486    5.5488 C   0  0  0  0  0  0  0  0  0  0  0  0
   -4.0903   28.6520    4.8273 N   0  0  0  0  0  0  0  0  0  0  0  0
   -1.5738   28.8784    1.8145 S   0  0  0  0  0  0  0  0  0  0  0  0
  1  2  1  0
  2  3  1  0
  2  4  2  3
  4  5  1  0
  5  6  2  0
  6  7  1  0
  7  8  1  0
  7  9  2  0
  9 10  1  0
 10 11  2  0
 11 12  1  0
 12 13  2  0
 13 14  1  0
 14 15  2  0
  9 16  1  0
 16  5  1  0
 15 10  1  0
M  END
>  <Energy>  (441) 
-12.543695322317284

>  <Energy_Delta>  (441) 
0

>  <std_smi>  (441) 
CC(=O)Nc1nc(C)c(-c2ccccn2)s1

>  <enum_smi>  (441) 
CC(O)=Nc1nc(C)c(-c2ccccn2)s1

>  <enum_code>  (441) 
T

>  <parent_uuid>  (441) 
38ce1dff-635b-49bf-aa41-0dda23e4ce8b

>  <o3da_score>  (441) 
93.907250357752019

>  <o3da_score_rel>  (441) 
0.37385840801066955

>  <o3da_align>  (441) 
0.52545997166333958

>  <RMSD>  (441) 
5.976369617669251e-05

>  <CONVERGED>  (441) 
0

>  <ENERGY>  (441) 
-12.543695322436891

$$$$
f7bda8ce-f203-4379-9967-91abaa5c45b6
     RDKit          3D

 16 17  0  0  0  0  0  0  0  0999 V2000
    0.8940   32.7040   -0.5173 C   0  0  0  0  0  0  0  0  0  0  0  0
    0.0098   32.0887    0.5184 C   0  0  0  0  0  0  0  0  0  0  0  0
   -0.2026   32.9208    1.5595 O   0  0  0  0  0  0  0  0  0  0  0  0
   -0.4716   30.8980    0.3894 N   0  0  0  0  0  0  0  0  0  0  0  0
   -1.2663   30.4007    1.3673 C   0  0  0  0  0  0  0  0  0  0  0  0
   -1.6466   31.0045    2.4752 N   0  0  0  0  0  0  0  0  0  0  0  0
   -2.4603   30.1734    3.2369 C   0  0  0  0  0  0  0  0  0  0  0  0
   -2.9729   30.7083    4.5289 C   0  0  0  0  0  0  0  0  0  0  0  0
   -2.7112   28.9217    2.6872 C   0  0  0  0  0  0  0  0  0  0  0  0
   -3.5040   27.8006    3.2092 C   0  0  0  0  0  0  0  0  0  0  0  0
   -4.1048   26.8371    2.4011 C   0  0  0  0  0  0  0  0  0  0  0  0
   -4.8370   25.8128    2.9994 C   0  0  0  0  0  0  0  0  0  0  0  0
   -4.9525   25.7756    4.3823 C   0  0  0  0  0  0  0  0  0  0  0  0
   -4.3312   26.7717    5.1133 C   0  0  0  0  0  0  0  0  0  0  0  0
   -3.6181   27.7777    4.5602 N   0  0  0  0  0  0  0  0  0  0  0  0
   -1.8768   28.8034    1.1873 S   0  0  0  0  0  0  0  0  0  0  0  0
  1  2  1  0
  2  3  1  0
  2  4  2  3
  4  5  1  0
  5  6  2  0
  6  7  1  0
  7  8  1  0
  7  9  2  0
  9 10  1  0
 10 11  2  0
 11 12  1  0
 12 13  2  0
 13 14  1  0
 14 15  2  0
  9 16  1  0
 16  5  1  0
 15 10  1  0
M  END
>  <Energy>  (442) 
-12.543695322061851

>  <Energy_Delta>  (442) 
2.5543300807839842e-10

>  <std_smi>  (442) 
CC(=O)Nc1nc(C)c(-c2ccccn2)s1

>  <enum_smi>  (442) 
CC(O)=Nc1nc(C)c(-c2ccccn2)s1

>  <enum_code>  (442) 
T

>  <parent_uuid>  (442) 
38ce1dff-635b-49bf-aa41-0dda23e4ce8b

>  <o3da_score>  (442) 
87.600374047549082

>  <o3da_score_rel>  (442) 
0.34874981705661617

>  <o3da_align>  (442) 
0.37908330378933103

>  <RMSD>  (442) 
5.3781228373042528e-05

>  <CONVERGED>  (442) 
0

>  <ENERGY>  (442) 
-12.543695322350787

$$$$
f7bda8ce-f203-4379-9967-91abaa5c45b6
     RDKit          3D

 16 17  0  0  0  0  0  0  0  0999 V2000
   -2.6528   22.2459    3.4183 C   0  0  0  0  0  0  0  0  0  0  0  0
   -3.3833   22.7637    4.6166 C   0  0  0  0  0  0  0  0  0  0  0  0
   -4.0212   21.7904    5.2939 O   0  0  0  0  0  0  0  0  0  0  0  0
   -3.4940   23.9572    5.0887 N   0  0  0  0  0  0  0  0  0  0  0  0
   -2.8332   24.9529    4.4489 C   0  0  0  0  0  0  0  0  0  0  0  0
   -1.6632   24.8987    3.8539 N   0  0  0  0  0  0  0  0  0  0  0  0
   -1.3099   26.1348    3.3293 C   0  0  0  0  0  0  0  0  0  0  0  0
   -0.0128   26.2297    2.6053 C   0  0  0  0  0  0  0  0  0  0  0  0
   -2.2214   27.1575    3.5588 C   0  0  0  0  0  0  0  0  0  0  0  0
   -2.1838   28.5668    3.1500 C   0  0  0  0  0  0  0  0  0  0  0  0
   -2.8016   29.5923    3.8631 C   0  0  0  0  0  0  0  0  0  0  0  0
   -2.7050   30.8994    3.3885 C   0  0  0  0  0  0  0  0  0  0  0  0
   -1.9967   31.1497    2.2209 C   0  0  0  0  0  0  0  0  0  0  0  0
   -1.4080   30.0777    1.5749 C   0  0  0  0  0  0  0  0  0  0  0  0
   -1.4830   28.8016    2.0131 N   0  0  0  0  0  0  0  0  0  0  0  0
   -3.5529   26.5184    4.4401 S   0  0  0  0  0  0  0  0  0  0  0  0
  1  2  1  0
  2  3  1  0
  2  4  2  3
  4  5  1  0
  5  6  2  0
  6  7  1  0
  7  8  1  0
  7  9  2  0
  9 10  1  0
 10 11  2  0
 11 12  1  0
 12 13  2  0
 13 14  1  0
 14 15  2  0
  9 16  1  0
 16  5  1  0
 15 10  1  0
M  END
>  <Energy>  (443) 
-10.083472020076268

>  <Energy_Delta>  (443) 
2.4602233022410154

>  <std_smi>  (443) 
CC(=O)Nc1nc(C)c(-c2ccccn2)s1

>  <enum_smi>  (443) 
CC(O)=Nc1nc(C)c(-c2ccccn2)s1

>  <enum_code>  (443) 
T

>  <parent_uuid>  (443) 
38ce1dff-635b-49bf-aa41-0dda23e4ce8b

>  <o3da_score>  (443) 
64.870461799684435

>  <o3da_score_rel>  (443) 
0.2582587338352938

>  <o3da_align>  (443) 
0.55794152808131792

>  <RMSD>  (443) 
5.4806203475909709e-05

>  <CONVERGED>  (443) 
0

>  <ENERGY>  (443) 
-10.083472020343331

$$$$
f7bda8ce-f203-4379-9967-91abaa5c45b6
     RDKit          3D

 16 17  0  0  0  0  0  0  0  0999 V2000
   -2.6361   24.7403    4.3491 C   0  0  0  0  0  0  0  0  0  0  0  0
   -3.8177   25.2880    5.0848 C   0  0  0  0  0  0  0  0  0  0  0  0
   -4.4736   24.3439    5.7858 O   0  0  0  0  0  0  0  0  0  0  0  0
   -4.2928   26.4837    5.1506 N   0  0  0  0  0  0  0  0  0  0  0  0
   -3.6751   27.4490    4.4265 C   0  0  0  0  0  0  0  0  0  0  0  0
   -3.1101   27.3411    3.2455 N   0  0  0  0  0  0  0  0  0  0  0  0
   -2.6009   28.5608    2.8201 C   0  0  0  0  0  0  0  0  0  0  0  0
   -1.9110   28.5961    1.5015 C   0  0  0  0  0  0  0  0  0  0  0  0
   -2.8120   29.6251    3.6872 C   0  0  0  0  0  0  0  0  0  0  0  0
   -2.4113   31.0325    3.5718 C   0  0  0  0  0  0  0  0  0  0  0  0
   -3.1134   32.0837    4.1581 C   0  0  0  0  0  0  0  0  0  0  0  0
   -2.6479   33.3864    3.9869 C   0  0  0  0  0  0  0  0  0  0  0  0
   -1.5002   33.6069    3.2375 C   0  0  0  0  0  0  0  0  0  0  0  0
   -0.8642   32.5103    2.6842 C   0  0  0  0  0  0  0  0  0  0  0  0
   -1.2940   31.2377    2.8314 N   0  0  0  0  0  0  0  0  0  0  0  0
   -3.6557   29.0472    5.0701 S   0  0  0  0  0  0  0  0  0  0  0  0
  1  2  1  0
  2  3  1  0
  2  4  2  3
  4  5  1  0
  5  6  2  0
  6  7  1  0
  7  8  1  0
  7  9  2  0
  9 10  1  0
 10 11  2  0
 11 12  1  0
 12 13  2  0
 13 14  1  0
 14 15  2  0
  9 16  1  0
 16  5  1  0
 15 10  1  0
M  END
>  <Energy>  (444) 
-10.083472018929532

>  <Energy_Delta>  (444) 
2.4602233033877514

>  <std_smi>  (444) 
CC(=O)Nc1nc(C)c(-c2ccccn2)s1

>  <enum_smi>  (444) 
CC(O)=Nc1nc(C)c(-c2ccccn2)s1

>  <enum_code>  (444) 
T

>  <parent_uuid>  (444) 
38ce1dff-635b-49bf-aa41-0dda23e4ce8b

>  <o3da_score>  (444) 
66.946678482298253

>  <o3da_score_rel>  (444) 
0.2665244541145067

>  <o3da_align>  (444) 
0.42598497670339408

>  <RMSD>  (444) 
6.3268582694557811e-05

>  <CONVERGED>  (444) 
0

>  <ENERGY>  (444) 
-10.083472020343738

$$$$
f7bda8ce-f203-4379-9967-91abaa5c45b6
     RDKit          3D

 16 17  0  0  0  0  0  0  0  0999 V2000
   -1.3700   33.3169    3.7124 C   0  0  0  0  0  0  0  0  0  0  0  0
   -1.0261   32.4707    2.5281 C   0  0  0  0  0  0  0  0  0  0  0  0
   -0.2390   33.1145    1.6451 O   0  0  0  0  0  0  0  0  0  0  0  0
   -1.3522   31.2615    2.2269 N   0  0  0  0  0  0  0  0  0  0  0  0
   -2.1719   30.5902    3.0727 C   0  0  0  0  0  0  0  0  0  0  0  0
   -3.1100   31.0726    3.8551 N   0  0  0  0  0  0  0  0  0  0  0  0
   -3.7557   30.0588    4.5506 C   0  0  0  0  0  0  0  0  0  0  0  0
   -4.8461   30.4544    5.4838 C   0  0  0  0  0  0  0  0  0  0  0  0
   -3.2928   28.7746    4.2920 C   0  0  0  0  0  0  0  0  0  0  0  0
   -3.7375   27.4810    4.8280 C   0  0  0  0  0  0  0  0  0  0  0  0
   -2.9218   26.3530    4.8995 C   0  0  0  0  0  0  0  0  0  0  0  0
   -3.4429   25.1724    5.4270 C   0  0  0  0  0  0  0  0  0  0  0  0
   -4.7582   25.1461    5.8697 C   0  0  0  0  0  0  0  0  0  0  0  0
   -5.5007   26.3085    5.7698 C   0  0  0  0  0  0  0  0  0  0  0  0
   -5.0207   27.4669    5.2659 N   0  0  0  0  0  0  0  0  0  0  0  0
   -2.0342   28.8732    3.1231 S   0  0  0  0  0  0  0  0  0  0  0  0
  1  2  1  0
  2  3  1  0
  2  4  2  3
  4  5  1  0
  5  6  2  0
  6  7  1  0
  7  8  1  0
  7  9  2  0
  9 10  1  0
 10 11  2  0
 11 12  1  0
 12 13  2  0
 13 14  1  0
 14 15  2  0
  9 16  1  0
 16  5  1  0
 15 10  1  0
M  END
>  <Energy>  (445) 
-9.9451030849499737

>  <Energy_Delta>  (445) 
2.5985922373673098

>  <std_smi>  (445) 
CC(=O)Nc1nc(C)c(-c2ccccn2)s1

>  <enum_smi>  (445) 
CC(O)=Nc1nc(C)c(-c2ccccn2)s1

>  <enum_code>  (445) 
T

>  <parent_uuid>  (445) 
38ce1dff-635b-49bf-aa41-0dda23e4ce8b

>  <o3da_score>  (445) 
77.174181218551055

>  <o3da_score_rel>  (445) 
0.30724162852152626

>  <o3da_align>  (445) 
0.64534622736147373

>  <RMSD>  (445) 
6.4294378497623575e-05

>  <CONVERGED>  (445) 
0

>  <ENERGY>  (445) 
-9.94510308514527

$$$$
f7bda8ce-f203-4379-9967-91abaa5c45b6
     RDKit          3D

 16 17  0  0  0  0  0  0  0  0999 V2000
    0.3499   32.8138   -0.8050 C   0  0  0  0  0  0  0  0  0  0  0  0
   -0.1517   32.1188    0.4191 C   0  0  0  0  0  0  0  0  0  0  0  0
   -0.3149   32.9710    1.4529 O   0  0  0  0  0  0  0  0  0  0  0  0
   -0.3883   30.8504    0.4392 N   0  0  0  0  0  0  0  0  0  0  0  0
   -0.8403   30.2813    1.5827 C   0  0  0  0  0  0  0  0  0  0  0  0
   -1.1182   30.8860    2.7234 N   0  0  0  0  0  0  0  0  0  0  0  0
   -1.5530   29.9706    3.6724 C   0  0  0  0  0  0  0  0  0  0  0  0
   -1.8802   30.4768    5.0325 C   0  0  0  0  0  0  0  0  0  0  0  0
   -1.6246   28.6599    3.2297 C   0  0  0  0  0  0  0  0  0  0  0  0
   -2.0600   27.4512    3.9190 C   0  0  0  0  0  0  0  0  0  0  0  0
   -3.3178   27.3591    4.5067 C   0  0  0  0  0  0  0  0  0  0  0  0
   -3.6617   26.1799    5.1627 C   0  0  0  0  0  0  0  0  0  0  0  0
   -2.7442   25.1369    5.2129 C   0  0  0  0  0  0  0  0  0  0  0  0
   -1.5143   25.3163    4.6021 C   0  0  0  0  0  0  0  0  0  0  0  0
   -1.1519   26.4482    3.9608 N   0  0  0  0  0  0  0  0  0  0  0  0
   -1.1063   28.5792    1.5973 S   0  0  0  0  0  0  0  0  0  0  0  0
  1  2  1  0
  2  3  1  0
  2  4  2  3
  4  5  1  0
  5  6  2  0
  6  7  1  0
  7  8  1  0
  7  9  2  0
  9 10  1  0
 10 11  2  0
 11 12  1  0
 12 13  2  0
 13 14  1  0
 14 15  2  0
  9 16  1  0
 16  5  1  0
 15 10  1  0
M  END
>  <Energy>  (446) 
-9.7718253240255954

>  <Energy_Delta>  (446) 
2.7718699982916881

>  <std_smi>  (446) 
CC(=O)Nc1nc(C)c(-c2ccccn2)s1

>  <enum_smi>  (446) 
CC(O)=Nc1nc(C)c(-c2ccccn2)s1

>  <enum_code>  (446) 
T

>  <parent_uuid>  (446) 
38ce1dff-635b-49bf-aa41-0dda23e4ce8b

>  <o3da_score>  (446) 
70.376803963305477

>  <o3da_score_rel>  (446) 
0.28018028203749235

>  <o3da_align>  (446) 
0.52990381147106769

>  <RMSD>  (446) 
7.0744059610549501e-05

>  <CONVERGED>  (446) 
0

>  <ENERGY>  (446) 
-9.7718253241488959

$$$$
f7bda8ce-f203-4379-9967-91abaa5c45b6
     RDKit          3D

 16 17  0  0  0  0  0  0  0  0999 V2000
    0.7658   32.7000   -0.6353 C   0  0  0  0  0  0  0  0  0  0  0  0
   -0.0325   32.0959    0.4740 C   0  0  0  0  0  0  0  0  0  0  0  0
   -0.2176   32.9616    1.4929 O   0  0  0  0  0  0  0  0  0  0  0  0
   -0.4723   30.8838    0.4213 N   0  0  0  0  0  0  0  0  0  0  0  0
   -1.1921   30.3970    1.4609 C   0  0  0  0  0  0  0  0  0  0  0  0
   -1.4876   31.0148    2.5901 N   0  0  0  0  0  0  0  0  0  0  0  0
   -2.2482   30.1963    3.4143 C   0  0  0  0  0  0  0  0  0  0  0  0
   -2.7000   30.7467    4.7204 C   0  0  0  0  0  0  0  0  0  0  0  0
   -2.5085   28.9346    2.9050 C   0  0  0  0  0  0  0  0  0  0  0  0
   -3.2326   27.8108    3.4864 C   0  0  0  0  0  0  0  0  0  0  0  0
   -2.8826   27.2783    4.7233 C   0  0  0  0  0  0  0  0  0  0  0  0
   -3.6281   26.2150    5.2257 C   0  0  0  0  0  0  0  0  0  0  0  0
   -4.6943   25.7208    4.4835 C   0  0  0  0  0  0  0  0  0  0  0  0
   -4.9730   26.3129    3.2629 C   0  0  0  0  0  0  0  0  0  0  0  0
   -4.2697   27.3459    2.7509 N   0  0  0  0  0  0  0  0  0  0  0  0
   -1.8057   28.7912    1.3476 S   0  0  0  0  0  0  0  0  0  0  0  0
  1  2  1  0
  2  3  1  0
  2  4  2  3
  4  5  1  0
  5  6  2  0
  6  7  1  0
  7  8  1  0
  7  9  2  0
  9 10  1  0
 10 11  2  0
 11 12  1  0
 12 13  2  0
 13 14  1  0
 14 15  2  0
  9 16  1  0
 16  5  1  0
 15 10  1  0
M  END
>  <Energy>  (447) 
-9.7718253238381507

>  <Energy_Delta>  (447) 
2.7718699984791328

>  <std_smi>  (447) 
CC(=O)Nc1nc(C)c(-c2ccccn2)s1

>  <enum_smi>  (447) 
CC(O)=Nc1nc(C)c(-c2ccccn2)s1

>  <enum_code>  (447) 
T

>  <parent_uuid>  (447) 
38ce1dff-635b-49bf-aa41-0dda23e4ce8b

>  <o3da_score>  (447) 
87.331704721317948

>  <o3da_score_rel>  (447) 
0.34768020543234424

>  <o3da_align>  (447) 
0.39109581552364753

>  <RMSD>  (447) 
6.9494005974718776e-05

>  <CONVERGED>  (447) 
0

>  <ENERGY>  (447) 
-9.7718253241229966

$$$$
f7bda8ce-f203-4379-9967-91abaa5c45b6
     RDKit          3D

 16 17  0  0  0  0  0  0  0  0999 V2000
   -1.5057   33.4646    3.6976 C   0  0  0  0  0  0  0  0  0  0  0  0
   -1.1337   32.4591    2.6544 C   0  0  0  0  0  0  0  0  0  0  0  0
   -0.4079   32.9933    1.6544 O   0  0  0  0  0  0  0  0  0  0  0  0
   -1.3900   31.1996    2.5684 N   0  0  0  0  0  0  0  0  0  0  0  0
   -2.0892   30.6335    3.5823 C   0  0  0  0  0  0  0  0  0  0  0  0
   -1.9692   30.8651    4.8724 N   0  0  0  0  0  0  0  0  0  0  0  0
   -2.8458   30.0777    5.6033 C   0  0  0  0  0  0  0  0  0  0  0  0
   -2.8676   30.2500    7.0802 C   0  0  0  0  0  0  0  0  0  0  0  0
   -3.6166   29.2086    4.8488 C   0  0  0  0  0  0  0  0  0  0  0  0
   -4.6059   28.2192    5.2595 C   0  0  0  0  0  0  0  0  0  0  0  0
   -4.3077   27.2331    6.1948 C   0  0  0  0  0  0  0  0  0  0  0  0
   -5.3053   26.3297    6.5521 C   0  0  0  0  0  0  0  0  0  0  0  0
   -6.5625   26.4389    5.9697 C   0  0  0  0  0  0  0  0  0  0  0  0
   -6.7718   27.4518    5.0487 C   0  0  0  0  0  0  0  0  0  0  0  0
   -5.8252   28.3432    4.6837 N   0  0  0  0  0  0  0  0  0  0  0  0
   -3.2411   29.4118    3.1877 S   0  0  0  0  0  0  0  0  0  0  0  0
  1  2  1  0
  2  3  1  0
  2  4  2  3
  4  5  1  0
  5  6  2  0
  6  7  1  0
  7  8  1  0
  7  9  2  0
  9 10  1  0
 10 11  2  0
 11 12  1  0
 12 13  2  0
 13 14  1  0
 14 15  2  0
  9 16  1  0
 16  5  1  0
 15 10  1  0
M  END
>  <Energy>  (448) 
-7.7771460174802467

>  <Energy_Delta>  (448) 
4.7665493048370369

>  <std_smi>  (448) 
CC(=O)Nc1nc(C)c(-c2ccccn2)s1

>  <enum_smi>  (448) 
CC(O)=Nc1nc(C)c(-c2ccccn2)s1

>  <enum_code>  (448) 
T

>  <parent_uuid>  (448) 
38ce1dff-635b-49bf-aa41-0dda23e4ce8b

>  <o3da_score>  (448) 
68.762894490651064

>  <o3da_score_rel>  (448) 
0.27375507393246012

>  <o3da_align>  (448) 
0.31734085932562722

>  <RMSD>  (448) 
6.9390047110688748e-05

>  <CONVERGED>  (448) 
0

>  <ENERGY>  (448) 
-7.7771460176695903

$$$$
f7bda8ce-f203-4379-9967-91abaa5c45b6
     RDKit          3D

 16 17  0  0  0  0  0  0  0  0999 V2000
   -1.4237   32.9748    3.7450 C   0  0  0  0  0  0  0  0  0  0  0  0
   -1.0575   32.3170    2.4523 C   0  0  0  0  0  0  0  0  0  0  0  0
   -0.2725   33.0916    1.6802 O   0  0  0  0  0  0  0  0  0  0  0  0
   -1.3693   31.1612    1.9767 N   0  0  0  0  0  0  0  0  0  0  0  0
   -2.1881   30.3791    2.7218 C   0  0  0  0  0  0  0  0  0  0  0  0
   -3.2390   30.7492    3.4226 N   0  0  0  0  0  0  0  0  0  0  0  0
   -3.8366   29.6595    4.0374 C   0  0  0  0  0  0  0  0  0  0  0  0
   -5.0164   29.9131    4.9063 C   0  0  0  0  0  0  0  0  0  0  0  0
   -3.2435   28.4380    3.7638 C   0  0  0  0  0  0  0  0  0  0  0  0
   -3.6047   27.0920    4.1928 C   0  0  0  0  0  0  0  0  0  0  0  0
   -4.8831   26.5803    3.9929 C   0  0  0  0  0  0  0  0  0  0  0  0
   -5.1633   25.2922    4.4416 C   0  0  0  0  0  0  0  0  0  0  0  0
   -4.1653   24.5598    5.0737 C   0  0  0  0  0  0  0  0  0  0  0  0
   -2.9215   25.1481    5.2316 C   0  0  0  0  0  0  0  0  0  0  0  0
   -2.6207   26.3949    4.8088 N   0  0  0  0  0  0  0  0  0  0  0  0
   -1.8944   28.6794    2.7325 S   0  0  0  0  0  0  0  0  0  0  0  0
  1  2  1  0
  2  3  1  0
  2  4  2  3
  4  5  1  0
  5  6  2  0
  6  7  1  0
  7  8  1  0
  7  9  2  0
  9 10  1  0
 10 11  2  0
 11 12  1  0
 12 13  2  0
 13 14  1  0
 14 15  2  0
  9 16  1  0
 16  5  1  0
 15 10  1  0
M  END
>  <Energy>  (449) 
-7.7771460171454159

>  <Energy_Delta>  (449) 
4.7665493051718677

>  <std_smi>  (449) 
CC(=O)Nc1nc(C)c(-c2ccccn2)s1

>  <enum_smi>  (449) 
CC(O)=Nc1nc(C)c(-c2ccccn2)s1

>  <enum_code>  (449) 
T

>  <parent_uuid>  (449) 
38ce1dff-635b-49bf-aa41-0dda23e4ce8b

>  <o3da_score>  (449) 
68.31087143652546

>  <o3da_score_rel>  (449) 
0.27195550447689926

>  <o3da_align>  (449) 
0.59511296031658578

>  <RMSD>  (449) 
6.67572021484375e-05

>  <CONVERGED>  (449) 
0

>  <ENERGY>  (449) 
-7.7771460176792377

$$$$
f7bda8ce-f203-4379-9967-91abaa5c45b6
     RDKit          3D

 16 17  0  0  0  0  0  0  0  0999 V2000
   -2.6915   33.0424    2.4148 C   0  0  0  0  0  0  0  0  0  0  0  0
   -1.3858   32.3172    2.3373 C   0  0  0  0  0  0  0  0  0  0  0  0
   -0.4229   33.0489    1.7453 O   0  0  0  0  0  0  0  0  0  0  0  0
   -1.0464   31.1404    2.7348 N   0  0  0  0  0  0  0  0  0  0  0  0
   -1.9777   30.3843    3.3666 C   0  0  0  0  0  0  0  0  0  0  0  0
   -2.9692   30.7848    4.1336 N   0  0  0  0  0  0  0  0  0  0  0  0
   -3.6849   29.7062    4.6307 C   0  0  0  0  0  0  0  0  0  0  0  0
   -4.8234   29.9920    5.5438 C   0  0  0  0  0  0  0  0  0  0  0  0
   -3.2340   28.4644    4.2138 C   0  0  0  0  0  0  0  0  0  0  0  0
   -3.7448   27.1264    4.4928 C   0  0  0  0  0  0  0  0  0  0  0  0
   -5.0816   26.7975    4.2896 C   0  0  0  0  0  0  0  0  0  0  0  0
   -5.5044   25.5051    4.5902 C   0  0  0  0  0  0  0  0  0  0  0  0
   -4.5856   24.5860    5.0830 C   0  0  0  0  0  0  0  0  0  0  0  0
   -3.2750   24.9987    5.2548 C   0  0  0  0  0  0  0  0  0  0  0  0
   -2.8365   26.2446    4.9733 N   0  0  0  0  0  0  0  0  0  0  0  0
   -1.8583   28.6696    3.2096 S   0  0  0  0  0  0  0  0  0  0  0  0
  1  2  1  0
  2  3  1  0
  2  4  2  3
  4  5  1  0
  5  6  2  0
  6  7  1  0
  7  8  1  0
  7  9  2  0
  9 10  1  0
 10 11  2  0
 11 12  1  0
 12 13  2  0
 13 14  1  0
 14 15  2  0
  9 16  1  0
 16  5  1  0
 15 10  1  0
M  END
>  <Energy>  (450) 
-7.494920408959592

>  <Energy_Delta>  (450) 
5.0487749133576916

>  <std_smi>  (450) 
CC(=O)Nc1nc(C)c(-c2ccccn2)s1

>  <enum_smi>  (450) 
CC(O)=Nc1nc(C)c(-c2ccccn2)s1

>  <enum_code>  (450) 
T

>  <parent_uuid>  (450) 
38ce1dff-635b-49bf-aa41-0dda23e4ce8b

>  <o3da_score>  (450) 
64.152874863100848

>  <o3da_score_rel>  (450) 
0.25540191597833001

>  <o3da_align>  (450) 
0.58941101254166905

>  <RMSD>  (450) 
6.8833223438148459e-05

>  <CONVERGED>  (450) 
0

>  <ENERGY>  (450) 
-7.4949204096405095

$$$$
f7bda8ce-f203-4379-9967-91abaa5c45b6
     RDKit          3D

 16 17  0  0  0  0  0  0  0  0999 V2000
   -1.2891   33.3603    3.7223 C   0  0  0  0  0  0  0  0  0  0  0  0
   -1.0800   32.4348    2.5663 C   0  0  0  0  0  0  0  0  0  0  0  0
   -0.2806   32.9626    1.6200 O   0  0  0  0  0  0  0  0  0  0  0  0
   -1.5294   31.2497    2.3389 N   0  0  0  0  0  0  0  0  0  0  0  0
   -2.3653   30.6957    3.2511 C   0  0  0  0  0  0  0  0  0  0  0  0
   -3.2348   31.2998    4.0328 N   0  0  0  0  0  0  0  0  0  0  0  0
   -3.9354   30.3847    4.8038 C   0  0  0  0  0  0  0  0  0  0  0  0
   -4.9820   30.9091    5.7211 C   0  0  0  0  0  0  0  0  0  0  0  0
   -3.5727   29.0614    4.6127 C   0  0  0  0  0  0  0  0  0  0  0  0
   -4.0517   27.8433    5.2575 C   0  0  0  0  0  0  0  0  0  0  0  0
   -4.0886   27.7159    6.6428 C   0  0  0  0  0  0  0  0  0  0  0  0
   -4.5710   26.5303    7.1916 C   0  0  0  0  0  0  0  0  0  0  0  0
   -5.0006   25.5145    6.3460 C   0  0  0  0  0  0  0  0  0  0  0  0
   -4.9290   25.7263    4.9795 C   0  0  0  0  0  0  0  0  0  0  0  0
   -4.4674   26.8649    4.4188 N   0  0  0  0  0  0  0  0  0  0  0  0
   -2.3539   28.9769    3.4084 S   0  0  0  0  0  0  0  0  0  0  0  0
  1  2  1  0
  2  3  1  0
  2  4  2  3
  4  5  1  0
  5  6  2  0
  6  7  1  0
  7  8  1  0
  7  9  2  0
  9 10  1  0
 10 11  2  0
 11 12  1  0
 12 13  2  0
 13 14  1  0
 14 15  2  0
  9 16  1  0
 16  5  1  0
 15 10  1  0
M  END
>  <Energy>  (451) 
-7.4949204080593628

>  <Energy_Delta>  (451) 
5.0487749142579208

>  <std_smi>  (451) 
CC(=O)Nc1nc(C)c(-c2ccccn2)s1

>  <enum_smi>  (451) 
CC(O)=Nc1nc(C)c(-c2ccccn2)s1

>  <enum_code>  (451) 
T

>  <parent_uuid>  (451) 
38ce1dff-635b-49bf-aa41-0dda23e4ce8b

>  <o3da_score>  (451) 
70.621563985673674

>  <o3da_score_rel>  (451) 
0.28115470724916264

>  <o3da_align>  (451) 
0.52111761440539117

>  <RMSD>  (451) 
4.9368192463123508e-05

>  <CONVERGED>  (451) 
0

>  <ENERGY>  (451) 
-7.4949204096335631

$$$$
23ee1b9e-bad4-4548-9c13-b29b1202c610
     RDKit          3D

 16 17  0  0  0  0  0  0  0  0999 V2000
    0.9889   32.4957   -0.4139 C   0  0  0  0  0  0  0  0  0  0  0  0
   -0.0114   32.1016    0.6255 C   0  0  0  0  0  0  0  0  0  0  0  0
   -0.4133   32.8132    1.5325 O   0  0  0  0  0  0  0  0  0  0  0  0
   -0.5129   30.7847    0.5121 N   0  0  0  0  0  0  0  0  0  0  0  0
   -1.3989   30.3030    1.3690 C   0  0  0  0  0  0  0  0  0  0  0  0
   -1.9212   30.9501    2.4084 N   0  0  0  0  0  4  0  0  0  0  0  0
   -2.8084   30.1902    3.1479 C   0  0  0  0  0  0  0  0  0  0  0  0
   -3.4141   30.8469    4.3329 C   0  0  0  0  0  0  0  0  0  0  0  0
   -2.9840   28.9106    2.6492 C   0  0  0  0  0  0  0  0  0  0  0  0
   -3.8034   27.8164    3.1849 C   0  0  0  0  0  0  0  0  0  0  0  0
   -4.3344   26.7861    2.4138 C   0  0  0  0  0  0  0  0  0  0  0  0
   -5.0960   25.8026    3.0428 C   0  0  0  0  0  0  0  0  0  0  0  0
   -5.3060   25.8733    4.4138 C   0  0  0  0  0  0  0  0  0  0  0  0
   -4.7459   26.9323    5.1047 C   0  0  0  0  0  0  0  0  0  0  0  0
   -4.0049   27.9021    4.5207 N   0  0  0  0  0  0  0  0  0  0  0  0
   -2.0138   28.6973    1.2297 S   0  0  0  0  0  0  0  0  0  0  0  0
  1  2  1  0
  2  3  2  0
  2  4  1  0
  4  5  1  0
  5  6  2  0
  6  7  1  0
  7  8  1  0
  7  9  2  0
  9 10  1  0
 10 11  2  0
 11 12  1  0
 12 13  2  0
 13 14  1  0
 14 15  2  0
  9 16  1  0
 16  5  1  0
 15 10  1  0
M  CHG  1   6   1
M  END
>  <Energy>  (452) 
-54.033853382958775

>  <Energy_Delta>  (452) 
0

>  <std_smi>  (452) 
CC(=O)Nc1nc(C)c(-c2ccccn2)s1

>  <enum_smi>  (452) 
CC(=O)Nc1[nH+]c(C)c(-c2ccccn2)s1

>  <enum_code>  (452) 
M

>  <parent_uuid>  (452) 
38ce1dff-635b-49bf-aa41-0dda23e4ce8b

>  <o3da_score>  (452) 
95.695049558696155

>  <o3da_score_rel>  (452) 
0.38097589638948404

>  <o3da_align>  (452) 
0.49488484657806309

>  <RMSD>  (452) 
6.0672727031392999e-05

>  <CONVERGED>  (452) 
0

>  <ENERGY>  (452) 
-54.033853383260166

$$$$
23ee1b9e-bad4-4548-9c13-b29b1202c610
     RDKit          3D

 16 17  0  0  0  0  0  0  0  0999 V2000
    0.7197   32.6020   -0.6268 C   0  0  0  0  0  0  0  0  0  0  0  0
   -0.0591   32.1554    0.5691 C   0  0  0  0  0  0  0  0  0  0  0  0
   -0.2943   32.8313    1.5583 O   0  0  0  0  0  0  0  0  0  0  0  0
   -0.5456   30.8293    0.5119 N   0  0  0  0  0  0  0  0  0  0  0  0
   -1.2559   30.3072    1.4990 C   0  0  0  0  0  0  0  0  0  0  0  0
   -1.6000   30.9186    2.6303 N   0  0  0  0  0  4  0  0  0  0  0  0
   -2.3661   30.1364    3.4745 C   0  0  0  0  0  0  0  0  0  0  0  0
   -2.7992   30.7649    4.7471 C   0  0  0  0  0  0  0  0  0  0  0  0
   -2.6107   28.8679    2.9766 C   0  0  0  0  0  0  0  0  0  0  0  0
   -3.4120   27.7859    3.5622 C   0  0  0  0  0  0  0  0  0  0  0  0
   -3.2103   26.4333    3.3020 C   0  0  0  0  0  0  0  0  0  0  0  0
   -4.0419   25.5009    3.9200 C   0  0  0  0  0  0  0  0  0  0  0  0
   -5.0444   25.9398    4.7750 C   0  0  0  0  0  0  0  0  0  0  0  0
   -5.1742   27.3010    4.9818 C   0  0  0  0  0  0  0  0  0  0  0  0
   -4.3805   28.2284    4.3980 N   0  0  0  0  0  0  0  0  0  0  0  0
   -1.8475   28.6882    1.4316 S   0  0  0  0  0  0  0  0  0  0  0  0
  1  2  1  0
  2  3  2  0
  2  4  1  0
  4  5  1  0
  5  6  2  0
  6  7  1  0
  7  8  1  0
  7  9  2  0
  9 10  1  0
 10 11  2  0
 11 12  1  0
 12 13  2  0
 13 14  1  0
 14 15  2  0
  9 16  1  0
 16  5  1  0
 15 10  1  0
M  CHG  1   6   1
M  END
>  <Energy>  (453) 
-54.033853382611845

>  <Energy_Delta>  (453) 
3.4692959616222652e-10

>  <std_smi>  (453) 
CC(=O)Nc1nc(C)c(-c2ccccn2)s1

>  <enum_smi>  (453) 
CC(=O)Nc1[nH+]c(C)c(-c2ccccn2)s1

>  <enum_code>  (453) 
M

>  <parent_uuid>  (453) 
38ce1dff-635b-49bf-aa41-0dda23e4ce8b

>  <o3da_score>  (453) 
92.422016967388998

>  <o3da_score_rel>  (453) 
0.36794547808534384

>  <o3da_align>  (453) 
0.41869589040092048

>  <RMSD>  (453) 
6.8946267090060287e-05

>  <CONVERGED>  (453) 
0

>  <ENERGY>  (453) 
-54.033853383264699

$$$$
23ee1b9e-bad4-4548-9c13-b29b1202c610
     RDKit          3D

 16 17  0  0  0  0  0  0  0  0999 V2000
    0.7787   32.5623   -0.6885 C   0  0  0  0  0  0  0  0  0  0  0  0
   -0.0011   32.1639    0.5236 C   0  0  0  0  0  0  0  0  0  0  0  0
   -0.1666   32.8489    1.5210 O   0  0  0  0  0  0  0  0  0  0  0  0
   -0.5853   30.8789    0.4704 N   0  0  0  0  0  0  0  0  0  0  0  0
   -1.2928   30.3941    1.4780 C   0  0  0  0  0  0  0  0  0  0  0  0
   -1.5477   31.0118    2.6324 N   0  0  0  0  0  4  0  0  0  0  0  0
   -2.2764   30.2454    3.5228 C   0  0  0  0  0  0  0  0  0  0  0  0
   -2.5532   30.8469    4.8486 C   0  0  0  0  0  0  0  0  0  0  0  0
   -2.6135   29.0057    3.0183 C   0  0  0  0  0  0  0  0  0  0  0  0
   -3.3511   27.9049    3.6316 C   0  0  0  0  0  0  0  0  0  0  0  0
   -4.5778   28.0882    4.2602 C   0  0  0  0  0  0  0  0  0  0  0  0
   -5.1982   26.9823    4.8360 C   0  0  0  0  0  0  0  0  0  0  0  0
   -4.5783   25.7398    4.7689 C   0  0  0  0  0  0  0  0  0  0  0  0
   -3.3563   25.6512    4.1244 C   0  0  0  0  0  0  0  0  0  0  0  0
   -2.7293   26.7062    3.5566 N   0  0  0  0  0  0  0  0  0  0  0  0
   -2.0080   28.8288    1.4056 S   0  0  0  0  0  0  0  0  0  0  0  0
  1  2  1  0
  2  3  2  0
  2  4  1  0
  4  5  1  0
  5  6  2  0
  6  7  1  0
  7  8  1  0
  7  9  2  0
  9 10  1  0
 10 11  2  0
 11 12  1  0
 12 13  2  0
 13 14  1  0
 14 15  2  0
  9 16  1  0
 16  5  1  0
 15 10  1  0
M  CHG  1   6   1
M  END
>  <Energy>  (454) 
-51.715774753732141

>  <Energy_Delta>  (454) 
2.3180786292266333

>  <std_smi>  (454) 
CC(=O)Nc1nc(C)c(-c2ccccn2)s1

>  <enum_smi>  (454) 
CC(=O)Nc1[nH+]c(C)c(-c2ccccn2)s1

>  <enum_code>  (454) 
M

>  <parent_uuid>  (454) 
38ce1dff-635b-49bf-aa41-0dda23e4ce8b

>  <o3da_score>  (454) 
93.038084310345994

>  <o3da_score_rel>  (454) 
0.37039813168970154

>  <o3da_align>  (454) 
0.50862807717380354

>  <RMSD>  (454) 
6.2913599023706979e-05

>  <CONVERGED>  (454) 
0

>  <ENERGY>  (454) 
-51.715774753957646

$$$$
23ee1b9e-bad4-4548-9c13-b29b1202c610
     RDKit          3D

 16 17  0  0  0  0  0  0  0  0999 V2000
    0.8584   32.6269   -0.6559 C   0  0  0  0  0  0  0  0  0  0  0  0
    0.0321   32.2010    0.5153 C   0  0  0  0  0  0  0  0  0  0  0  0
   -0.2327   32.8897    1.4884 O   0  0  0  0  0  0  0  0  0  0  0  0
   -0.4632   30.8794    0.4563 N   0  0  0  0  0  0  0  0  0  0  0  0
   -1.2177   30.3755    1.4194 C   0  0  0  0  0  0  0  0  0  0  0  0
   -1.6029   31.0047    2.5307 N   0  0  0  0  0  4  0  0  0  0  0  0
   -2.4285   30.2464    3.3399 C   0  0  0  0  0  0  0  0  0  0  0  0
   -2.9395   30.8989    4.5684 C   0  0  0  0  0  0  0  0  0  0  0  0
   -2.6603   28.9809    2.8401 C   0  0  0  0  0  0  0  0  0  0  0  0
   -3.4760   27.8913    3.3686 C   0  0  0  0  0  0  0  0  0  0  0  0
   -3.3764   27.4564    4.6855 C   0  0  0  0  0  0  0  0  0  0  0  0
   -4.2108   26.4239    5.1065 C   0  0  0  0  0  0  0  0  0  0  0  0
   -5.1123   25.8652    4.2078 C   0  0  0  0  0  0  0  0  0  0  0  0
   -5.1436   26.3627    2.9163 C   0  0  0  0  0  0  0  0  0  0  0  0
   -4.3470   27.3639    2.4785 N   0  0  0  0  0  0  0  0  0  0  0  0
   -1.8142   28.7614    1.3453 S   0  0  0  0  0  0  0  0  0  0  0  0
  1  2  1  0
  2  3  2  0
  2  4  1  0
  4  5  1  0
  5  6  2  0
  6  7  1  0
  7  8  1  0
  7  9  2  0
  9 10  1  0
 10 11  2  0
 11 12  1  0
 12 13  2  0
 13 14  1  0
 14 15  2  0
  9 16  1  0
 16  5  1  0
 15 10  1  0
M  CHG  1   6   1
M  END
>  <Energy>  (455) 
-51.715774753221069

>  <Energy_Delta>  (455) 
2.3180786297377054

>  <std_smi>  (455) 
CC(=O)Nc1nc(C)c(-c2ccccn2)s1

>  <enum_smi>  (455) 
CC(=O)Nc1[nH+]c(C)c(-c2ccccn2)s1

>  <enum_code>  (455) 
M

>  <parent_uuid>  (455) 
38ce1dff-635b-49bf-aa41-0dda23e4ce8b

>  <o3da_score>  (455) 
89.569730801715735

>  <o3da_score_rel>  (455) 
0.35659011243437377

>  <o3da_align>  (455) 
0.3464075745003235

>  <RMSD>  (455) 
7.274306744805733e-05

>  <CONVERGED>  (455) 
0

>  <ENERGY>  (455) 
-51.715774753960915

$$$$
23ee1b9e-bad4-4548-9c13-b29b1202c610
     RDKit          3D

 16 17  0  0  0  0  0  0  0  0999 V2000
  -10.2997   23.1473    2.0297 C   0  0  0  0  0  0  0  0  0  0  0  0
   -9.2412   24.0853    2.5249 C   0  0  0  0  0  0  0  0  0  0  0  0
   -9.3875   25.2872    2.6425 O   0  0  0  0  0  0  0  0  0  0  0  0
   -8.0071   23.4523    2.8446 N   0  0  0  0  0  0  0  0  0  0  0  0
   -6.9363   24.0809    3.3197 C   0  0  0  0  0  0  0  0  0  0  0  0
   -5.8086   23.3990    3.5584 N   0  0  0  0  0  4  0  0  0  0  0  0
   -4.7785   24.1768    4.0693 C   0  0  0  0  0  0  0  0  0  0  0  0
   -3.5020   23.4746    4.3594 C   0  0  0  0  0  0  0  0  0  0  0  0
   -5.1147   25.5074    4.2320 C   0  0  0  0  0  0  0  0  0  0  0  0
   -4.3076   26.6092    4.7758 C   0  0  0  0  0  0  0  0  0  0  0  0
   -4.5626   27.9586    4.5453 C   0  0  0  0  0  0  0  0  0  0  0  0
   -3.7227   28.9097    5.1226 C   0  0  0  0  0  0  0  0  0  0  0  0
   -2.6573   28.4931    5.9093 C   0  0  0  0  0  0  0  0  0  0  0  0
   -2.4716   27.1344    6.0859 C   0  0  0  0  0  0  0  0  0  0  0  0
   -3.2685   26.1887    5.5361 N   0  0  0  0  0  0  0  0  0  0  0  0
   -6.7423   25.7519    3.7164 S   0  0  0  0  0  0  0  0  0  0  0  0
  1  2  1  0
  2  3  2  0
  2  4  1  0
  4  5  1  0
  5  6  2  0
  6  7  1  0
  7  8  1  0
  7  9  2  0
  9 10  1  0
 10 11  2  0
 11 12  1  0
 12 13  2  0
 13 14  1  0
 14 15  2  0
  9 16  1  0
 16  5  1  0
 15 10  1  0
M  CHG  1   6   1
M  END
>  <Energy>  (456) 
-42.05640164705941

>  <Energy_Delta>  (456) 
11.977451735899365

>  <std_smi>  (456) 
CC(=O)Nc1nc(C)c(-c2ccccn2)s1

>  <enum_smi>  (456) 
CC(=O)Nc1[nH+]c(C)c(-c2ccccn2)s1

>  <enum_code>  (456) 
M

>  <parent_uuid>  (456) 
38ce1dff-635b-49bf-aa41-0dda23e4ce8b

>  <o3da_score>  (456) 
67.731477832031871

>  <o3da_score_rel>  (456) 
0.2696488543539074

>  <o3da_align>  (456) 
0.28468514844554071

>  <RMSD>  (456) 
6.0268519686529819e-05

>  <CONVERGED>  (456) 
0

>  <ENERGY>  (456) 
-42.056401647198271

$$$$
e81d6b10-33be-4079-bf75-d133d243ce90
     RDKit          3D

 16 17  0  0  0  0  0  0  0  0999 V2000
   -2.7963   22.1866    3.5106 C   0  0  0  0  0  0  0  0  0  0  0  0
   -2.9718   22.7198    4.9198 C   0  0  0  0  0  0  0  0  0  0  0  0
   -2.7455   21.9798    5.8805 O   0  0  0  0  0  0  0  0  0  0  0  0
   -3.4769   23.9537    5.0019 N   0  0  0  0  0  2  0  0  0  0  0  0
   -2.8242   24.9449    4.3469 C   0  0  0  0  0  0  0  0  0  0  0  0
   -1.6909   24.8733    3.6857 N   0  0  0  0  0  0  0  0  0  0  0  0
   -1.3406   26.1134    3.1707 C   0  0  0  0  0  0  0  0  0  0  0  0
   -0.0763   26.1949    2.3958 C   0  0  0  0  0  0  0  0  0  0  0  0
   -2.2189   27.1496    3.4632 C   0  0  0  0  0  0  0  0  0  0  0  0
   -2.1664   28.5730    3.1049 C   0  0  0  0  0  0  0  0  0  0  0  0
   -2.7843   29.5728    3.8559 C   0  0  0  0  0  0  0  0  0  0  0  0
   -2.6786   30.9002    3.4429 C   0  0  0  0  0  0  0  0  0  0  0  0
   -1.9588   31.1998    2.2950 C   0  0  0  0  0  0  0  0  0  0  0  0
   -1.3685   30.1545    1.6077 C   0  0  0  0  0  0  0  0  0  0  0  0
   -1.4517   28.8611    1.9857 N   0  0  0  0  0  0  0  0  0  0  0  0
   -3.5322   26.5088    4.3767 S   0  0  0  0  0  0  0  0  0  0  0  0
  1  2  1  0
  2  3  2  0
  2  4  1  0
  4  5  1  0
  5  6  2  0
  6  7  1  0
  7  8  1  0
  7  9  2  0
  9 10  1  0
 10 11  2  0
 11 12  1  0
 12 13  2  0
 13 14  1  0
 14 15  2  0
  9 16  1  0
 16  5  1  0
 15 10  1  0
M  CHG  1   4  -1
M  END
>  <Energy>  (457) 
39.607266626514004

>  <Energy_Delta>  (457) 
0

>  <std_smi>  (457) 
CC(=O)Nc1nc(C)c(-c2ccccn2)s1

>  <enum_smi>  (457) 
CC(=O)[N-]c1nc(C)c(-c2ccccn2)s1

>  <enum_code>  (457) 
M

>  <parent_uuid>  (457) 
38ce1dff-635b-49bf-aa41-0dda23e4ce8b

>  <o3da_score>  (457) 
64.107896205734548

>  <o3da_score_rel>  (457) 
0.25522284940814122

>  <o3da_align>  (457) 
0.55361267120526558

>  <RMSD>  (457) 
6.2718136014775782e-05

>  <CONVERGED>  (457) 
0

>  <ENERGY>  (457) 
39.607266624323074

$$$$
e81d6b10-33be-4079-bf75-d133d243ce90
     RDKit          3D

 16 17  0  0  0  0  0  0  0  0999 V2000
   -2.7162   24.6225    4.3102 C   0  0  0  0  0  0  0  0  0  0  0  0
   -4.1144   25.1541    4.5614 C   0  0  0  0  0  0  0  0  0  0  0  0
   -5.0843   24.4087    4.4015 O   0  0  0  0  0  0  0  0  0  0  0  0
   -4.1710   26.3943    5.0546 N   0  0  0  0  0  2  0  0  0  0  0  0
   -3.5589   27.3787    4.3518 C   0  0  0  0  0  0  0  0  0  0  0  0
   -2.9651   27.2940    3.1826 N   0  0  0  0  0  0  0  0  0  0  0  0
   -2.4760   28.5309    2.7866 C   0  0  0  0  0  0  0  0  0  0  0  0
   -1.7770   28.5979    1.4780 C   0  0  0  0  0  0  0  0  0  0  0  0
   -2.7199   29.5776    3.6672 C   0  0  0  0  0  0  0  0  0  0  0  0
   -2.3702   31.0012    3.5754 C   0  0  0  0  0  0  0  0  0  0  0  0
   -3.0870   32.0069    4.2235 C   0  0  0  0  0  0  0  0  0  0  0  0
   -2.6855   33.3339    4.0766 C   0  0  0  0  0  0  0  0  0  0  0  0
   -1.5829   33.6272    3.2867 C   0  0  0  0  0  0  0  0  0  0  0  0
   -0.9279   32.5761    2.6705 C   0  0  0  0  0  0  0  0  0  0  0  0
   -1.2959   31.2829    2.7925 N   0  0  0  0  0  0  0  0  0  0  0  0
   -3.5524   28.9516    5.0401 S   0  0  0  0  0  0  0  0  0  0  0  0
  1  2  1  0
  2  3  2  0
  2  4  1  0
  4  5  1  0
  5  6  2  0
  6  7  1  0
  7  8  1  0
  7  9  2  0
  9 10  1  0
 10 11  2  0
 11 12  1  0
 12 13  2  0
 13 14  1  0
 14 15  2  0
  9 16  1  0
 16  5  1  0
 15 10  1  0
M  CHG  1   4  -1
M  END
>  <Energy>  (458) 
39.607266628014045

>  <Energy_Delta>  (458) 
1.5000409803178627e-09

>  <std_smi>  (458) 
CC(=O)Nc1nc(C)c(-c2ccccn2)s1

>  <enum_smi>  (458) 
CC(=O)[N-]c1nc(C)c(-c2ccccn2)s1

>  <enum_code>  (458) 
M

>  <parent_uuid>  (458) 
38ce1dff-635b-49bf-aa41-0dda23e4ce8b

>  <o3da_score>  (458) 
73.662158438214888

>  <o3da_score_rel>  (458) 
0.29325975555057204

>  <o3da_align>  (458) 
0.41553869292632117

>  <RMSD>  (458) 
5.6823706012273947e-05

>  <CONVERGED>  (458) 
0

>  <ENERGY>  (458) 
39.607266624340248

$$$$
e81d6b10-33be-4079-bf75-d133d243ce90
     RDKit          3D

 16 17  0  0  0  0  0  0  0  0999 V2000
   -1.2428   23.0426    5.7024 C   0  0  0  0  0  0  0  0  0  0  0  0
   -1.5326   24.5261    5.6775 C   0  0  0  0  0  0  0  0  0  0  0  0
   -0.6830   25.3232    6.0786 O   0  0  0  0  0  0  0  0  0  0  0  0
   -2.7740   24.7284    5.2253 N   0  0  0  0  0  2  0  0  0  0  0  0
   -3.1518   25.9834    4.8799 C   0  0  0  0  0  0  0  0  0  0  0  0
   -4.3728   26.4313    5.0870 N   0  0  0  0  0  0  0  0  0  0  0  0
   -4.5124   27.7285    4.6128 C   0  0  0  0  0  0  0  0  0  0  0  0
   -5.8224   28.3944    4.8234 C   0  0  0  0  0  0  0  0  0  0  0  0
   -3.3862   28.2625    4.0013 C   0  0  0  0  0  0  0  0  0  0  0  0
   -3.1583   29.5866    3.4111 C   0  0  0  0  0  0  0  0  0  0  0  0
   -1.8993   30.1835    3.3492 C   0  0  0  0  0  0  0  0  0  0  0  0
   -1.7717   31.4480    2.7771 C   0  0  0  0  0  0  0  0  0  0  0  0
   -2.9003   32.0877    2.2841 C   0  0  0  0  0  0  0  0  0  0  0  0
   -4.1154   31.4343    2.3893 C   0  0  0  0  0  0  0  0  0  0  0  0
   -4.2699   30.2118    2.9407 N   0  0  0  0  0  0  0  0  0  0  0  0
   -2.1578   27.0572    3.9742 S   0  0  0  0  0  0  0  0  0  0  0  0
  1  2  1  0
  2  3  2  0
  2  4  1  0
  4  5  1  0
  5  6  2  0
  6  7  1  0
  7  8  1  0
  7  9  2  0
  9 10  1  0
 10 11  2  0
 11 12  1  0
 12 13  2  0
 13 14  1  0
 14 15  2  0
  9 16  1  0
 16  5  1  0
 15 10  1  0
M  CHG  1   4  -1
M  END
>  <Energy>  (459) 
41.025621942770471

>  <Energy_Delta>  (459) 
1.4183553162564664

>  <std_smi>  (459) 
CC(=O)Nc1nc(C)c(-c2ccccn2)s1

>  <enum_smi>  (459) 
CC(=O)[N-]c1nc(C)c(-c2ccccn2)s1

>  <enum_code>  (459) 
M

>  <parent_uuid>  (459) 
38ce1dff-635b-49bf-aa41-0dda23e4ce8b

>  <o3da_score>  (459) 
63.809556244420691

>  <o3da_score_rel>  (459) 
0.25403511467458395

>  <o3da_align>  (459) 
0.39219959124133846

>  <RMSD>  (459) 
6.2353637931090647e-05

>  <CONVERGED>  (459) 
0

>  <ENERGY>  (459) 
41.025621942035876

$$$$
e81d6b10-33be-4079-bf75-d133d243ce90
     RDKit          3D

 16 17  0  0  0  0  0  0  0  0999 V2000
   -1.0609   32.5894    2.3937 C   0  0  0  0  0  0  0  0  0  0  0  0
   -1.5243   31.4400    3.2594 C   0  0  0  0  0  0  0  0  0  0  0  0
   -0.7593   30.9546    4.0945 O   0  0  0  0  0  0  0  0  0  0  0  0
   -2.7978   31.1534    2.9726 N   0  0  0  0  0  2  0  0  0  0  0  0
   -3.3343   30.0006    3.4417 C   0  0  0  0  0  0  0  0  0  0  0  0
   -4.5905   29.9168    3.8285 N   0  0  0  0  0  0  0  0  0  0  0  0
   -4.9007   28.6248    4.2303 C   0  0  0  0  0  0  0  0  0  0  0  0
   -6.2706   28.3820    4.7482 C   0  0  0  0  0  0  0  0  0  0  0  0
   -3.8705   27.7017    4.1118 C   0  0  0  0  0  0  0  0  0  0  0  0
   -3.8239   26.2750    4.4522 C   0  0  0  0  0  0  0  0  0  0  0  0
   -2.6475   25.6192    4.8143 C   0  0  0  0  0  0  0  0  0  0  0  0
   -2.6927   24.2621    5.1291 C   0  0  0  0  0  0  0  0  0  0  0  0
   -3.9076   23.5931    5.0788 C   0  0  0  0  0  0  0  0  0  0  0  0
   -5.0320   24.3145    4.7187 C   0  0  0  0  0  0  0  0  0  0  0  0
   -5.0192   25.6291    4.4119 N   0  0  0  0  0  0  0  0  0  0  0  0
   -2.5107   28.4899    3.4104 S   0  0  0  0  0  0  0  0  0  0  0  0
  1  2  1  0
  2  3  2  0
  2  4  1  0
  4  5  1  0
  5  6  2  0
  6  7  1  0
  7  8  1  0
  7  9  2  0
  9 10  1  0
 10 11  2  0
 11 12  1  0
 12 13  2  0
 13 14  1  0
 14 15  2  0
  9 16  1  0
 16  5  1  0
 15 10  1  0
M  CHG  1   4  -1
M  END
>  <Energy>  (460) 
41.025621949817285

>  <Energy_Delta>  (460) 
1.4183553233032811

>  <std_smi>  (460) 
CC(=O)Nc1nc(C)c(-c2ccccn2)s1

>  <enum_smi>  (460) 
CC(=O)[N-]c1nc(C)c(-c2ccccn2)s1

>  <enum_code>  (460) 
M

>  <parent_uuid>  (460) 
38ce1dff-635b-49bf-aa41-0dda23e4ce8b

>  <o3da_score>  (460) 
72.033219975066544

>  <o3da_score_rel>  (460) 
0.28677471485073308

>  <o3da_align>  (460) 
0.58865438055456609

>  <RMSD>  (460) 
7.2116004315360175e-05

>  <CONVERGED>  (460) 
0

>  <ENERGY>  (460) 
41.025621942277112

$$$$
e81d6b10-33be-4079-bf75-d133d243ce90
     RDKit          3D

 16 17  0  0  0  0  0  0  0  0999 V2000
   -2.2314   31.7446    3.4149 C   0  0  0  0  0  0  0  0  0  0  0  0
   -2.2890   30.4568    4.2046 C   0  0  0  0  0  0  0  0  0  0  0  0
   -1.4252   30.2172    5.0500 O   0  0  0  0  0  0  0  0  0  0  0  0
   -3.3756   29.7653    3.8476 N   0  0  0  0  0  2  0  0  0  0  0  0
   -3.4901   28.4725    4.2380 C   0  0  0  0  0  0  0  0  0  0  0  0
   -4.6486   27.9371    4.5635 N   0  0  0  0  0  0  0  0  0  0  0  0
   -4.5009   26.5960    4.8904 C   0  0  0  0  0  0  0  0  0  0  0  0
   -5.7141   25.8646    5.3342 C   0  0  0  0  0  0  0  0  0  0  0  0
   -3.2114   26.0946    4.7759 C   0  0  0  0  0  0  0  0  0  0  0  0
   -2.6808   24.7544    5.0516 C   0  0  0  0  0  0  0  0  0  0  0  0
   -1.3597   24.5253    5.4356 C   0  0  0  0  0  0  0  0  0  0  0  0
   -0.9388   23.2202    5.6847 C   0  0  0  0  0  0  0  0  0  0  0  0
   -1.8436   22.1768    5.5486 C   0  0  0  0  0  0  0  0  0  0  0  0
   -3.1389   22.4851    5.1720 C   0  0  0  0  0  0  0  0  0  0  0  0
   -3.5757   23.7388    4.9274 N   0  0  0  0  0  0  0  0  0  0  0  0
   -2.1923   27.3442    4.1739 S   0  0  0  0  0  0  0  0  0  0  0  0
  1  2  1  0
  2  3  2  0
  2  4  1  0
  4  5  1  0
  5  6  2  0
  6  7  1  0
  7  8  1  0
  7  9  2  0
  9 10  1  0
 10 11  2  0
 11 12  1  0
 12 13  2  0
 13 14  1  0
 14 15  2  0
  9 16  1  0
 16  5  1  0
 15 10  1  0
M  CHG  1   4  -1
M  END
>  <Energy>  (461) 
42.725261608046196

>  <Energy_Delta>  (461) 
3.1179949815321919

>  <std_smi>  (461) 
CC(=O)Nc1nc(C)c(-c2ccccn2)s1

>  <enum_smi>  (461) 
CC(=O)[N-]c1nc(C)c(-c2ccccn2)s1

>  <enum_code>  (461) 
M

>  <parent_uuid>  (461) 
38ce1dff-635b-49bf-aa41-0dda23e4ce8b

>  <o3da_score>  (461) 
70.552337650031674

>  <o3da_score_rel>  (461) 
0.28087910714867059

>  <o3da_align>  (461) 
0.36311287861367353

>  <RMSD>  (461) 
0.67453854783371925

>  <CONVERGED>  (461) 
0

>  <ENERGY>  (461) 
41.02562194201667

$$$$
e81d6b10-33be-4079-bf75-d133d243ce90
     RDKit          3D

 16 17  0  0  0  0  0  0  0  0999 V2000
   -4.9914   23.8821    4.0300 C   0  0  0  0  0  0  0  0  0  0  0  0
   -3.6426   23.6559    4.6871 C   0  0  0  0  0  0  0  0  0  0  0  0
   -3.0444   22.5918    4.5208 O   0  0  0  0  0  0  0  0  0  0  0  0
   -3.2511   24.6634    5.4741 N   0  0  0  0  0  2  0  0  0  0  0  0
   -3.0827   25.8599    4.8560 C   0  0  0  0  0  0  0  0  0  0  0  0
   -3.6278   26.9773    5.2812 N   0  0  0  0  0  0  0  0  0  0  0  0
   -3.2582   28.0435    4.4715 C   0  0  0  0  0  0  0  0  0  0  0  0
   -3.8193   29.3763    4.8108 C   0  0  0  0  0  0  0  0  0  0  0  0
   -2.4041   27.7292    3.4200 C   0  0  0  0  0  0  0  0  0  0  0  0
   -1.8221   28.5823    2.3725 C   0  0  0  0  0  0  0  0  0  0  0  0
   -1.3194   28.0860    1.1695 C   0  0  0  0  0  0  0  0  0  0  0  0
   -0.7881   28.9716    0.2326 C   0  0  0  0  0  0  0  0  0  0  0  0
   -0.7717   30.3300    0.5138 C   0  0  0  0  0  0  0  0  0  0  0  0
   -1.2939   30.7474    1.7244 C   0  0  0  0  0  0  0  0  0  0  0  0
   -1.8172   29.9132    2.6481 N   0  0  0  0  0  0  0  0  0  0  0  0
   -2.0377   26.0464    3.5045 S   0  0  0  0  0  0  0  0  0  0  0  0
  1  2  1  0
  2  3  2  0
  2  4  1  0
  4  5  1  0
  5  6  2  0
  6  7  1  0
  7  8  1  0
  7  9  2  0
  9 10  1  0
 10 11  2  0
 11 12  1  0
 12 13  2  0
 13 14  1  0
 14 15  2  0
  9 16  1  0
 16  5  1  0
 15 10  1  0
M  CHG  1   4  -1
M  END
>  <Energy>  (462) 
42.774162856181896

>  <Energy_Delta>  (462) 
3.1668962296678913

>  <std_smi>  (462) 
CC(=O)Nc1nc(C)c(-c2ccccn2)s1

>  <enum_smi>  (462) 
CC(=O)[N-]c1nc(C)c(-c2ccccn2)s1

>  <enum_code>  (462) 
M

>  <parent_uuid>  (462) 
38ce1dff-635b-49bf-aa41-0dda23e4ce8b

>  <o3da_score>  (462) 
65.599661183833646

>  <o3da_score_rel>  (462) 
0.26116178253325706

>  <o3da_align>  (462) 
0.53481279444717089

>  <RMSD>  (462) 
6.8148521684375046e-05

>  <CONVERGED>  (462) 
0

>  <ENERGY>  (462) 
42.774162850879257

$$$$
7887936d-579e-4cf6-b58b-75e02d931062
     RDKit          3D

 16 17  0  0  0  0  0  0  0  0999 V2000
    1.0428   32.5089   -0.5082 C   0  0  0  0  0  0  0  0  0  0  0  0
    0.0707   32.1512    0.5697 C   0  0  0  0  0  0  0  0  0  0  0  0
   -0.2695   32.8675    1.4979 O   0  0  0  0  0  0  0  0  0  0  0  0
   -0.4981   30.8538    0.4790 N   0  0  0  0  0  0  0  0  0  0  0  0
   -1.3643   30.4205    1.3812 C   0  0  0  0  0  0  0  0  0  0  0  0
   -1.8029   31.0963    2.4436 N   0  0  0  0  0  4  0  0  0  0  0  0
   -2.6769   30.3981    3.2544 C   0  0  0  0  0  0  0  0  0  0  0  0
   -3.1756   31.1328    4.4456 C   0  0  0  0  0  0  0  0  0  0  0  0
   -2.9327   29.1124    2.8043 C   0  0  0  0  0  0  0  0  0  0  0  0
   -3.7427   28.0312    3.3869 C   0  0  0  0  0  0  0  0  0  0  0  0
   -3.8504   27.8268    4.7687 C   0  0  0  0  0  0  0  0  0  0  0  0
   -4.6365   26.7844    5.2562 C   0  0  0  0  0  0  0  0  0  0  0  0
   -5.3052   25.9531    4.3672 C   0  0  0  0  0  0  0  0  0  0  0  0
   -5.1704   26.1779    3.0061 C   0  0  0  0  0  0  0  0  0  0  0  0
   -4.4050   27.1905    2.5627 N   0  0  0  0  0  4  0  0  0  0  0  0
   -2.0939   28.8481    1.3029 S   0  0  0  0  0  0  0  0  0  0  0  0
  1  2  1  0
  2  3  2  0
  2  4  1  0
  4  5  1  0
  5  6  2  0
  6  7  1  0
  7  8  1  0
  7  9  2  0
  9 10  1  0
 10 11  2  0
 11 12  1  0
 12 13  2  0
 13 14  1  0
 14 15  2  0
  9 16  1  0
 16  5  1  0
 15 10  1  0
M  CHG  2   6   1  15   1
M  END
>  <Energy>  (463) 
20.753321794724503

>  <Energy_Delta>  (463) 
0

>  <std_smi>  (463) 
CC(=O)Nc1nc(C)c(-c2ccccn2)s1

>  <enum_smi>  (463) 
CC(=O)Nc1[nH+]c(C)c(-c2cccc[nH+]2)s1

>  <enum_code>  (463) 
M

>  <parent_uuid>  (463) 
38ce1dff-635b-49bf-aa41-0dda23e4ce8b

>  <o3da_score>  (463) 
93.410507246906633

>  <o3da_score_rel>  (463) 
0.3718808015116673

>  <o3da_align>  (463) 
0.48703737504746858

>  <RMSD>  (463) 
7.3239145116401298e-05

>  <CONVERGED>  (463) 
0

>  <ENERGY>  (463) 
20.753321794161124

$$$$
7887936d-579e-4cf6-b58b-75e02d931062
     RDKit          3D

 16 17  0  0  0  0  0  0  0  0999 V2000
    0.6908   32.6954   -0.7044 C   0  0  0  0  0  0  0  0  0  0  0  0
   -0.0302   32.2101    0.5118 C   0  0  0  0  0  0  0  0  0  0  0  0
   -0.2278   32.8487    1.5333 O   0  0  0  0  0  0  0  0  0  0  0  0
   -0.5159   30.8777    0.4480 N   0  0  0  0  0  0  0  0  0  0  0  0
   -1.1786   30.3405    1.4600 C   0  0  0  0  0  0  0  0  0  0  0  0
   -1.4708   30.9348    2.6174 N   0  0  0  0  0  4  0  0  0  0  0  0
   -2.2108   30.1648    3.4937 C   0  0  0  0  0  0  0  0  0  0  0  0
   -2.5493   30.8098    4.7887 C   0  0  0  0  0  0  0  0  0  0  0  0
   -2.5135   28.9071    2.9960 C   0  0  0  0  0  0  0  0  0  0  0  0
   -3.3157   27.8132    3.5656 C   0  0  0  0  0  0  0  0  0  0  0  0
   -4.4526   28.0390    4.3526 C   0  0  0  0  0  0  0  0  0  0  0  0
   -5.1677   26.9577    4.8640 C   0  0  0  0  0  0  0  0  0  0  0  0
   -4.7494   25.6630    4.5864 C   0  0  0  0  0  0  0  0  0  0  0  0
   -3.6253   25.4748    3.7975 C   0  0  0  0  0  0  0  0  0  0  0  0
   -2.9542   26.5358    3.3163 N   0  0  0  0  0  4  0  0  0  0  0  0
   -1.7788   28.7127    1.4307 S   0  0  0  0  0  0  0  0  0  0  0  0
  1  2  1  0
  2  3  2  0
  2  4  1  0
  4  5  1  0
  5  6  2  0
  6  7  1  0
  7  8  1  0
  7  9  2  0
  9 10  1  0
 10 11  2  0
 11 12  1  0
 12 13  2  0
 13 14  1  0
 14 15  2  0
  9 16  1  0
 16  5  1  0
 15 10  1  0
M  CHG  2   6   1  15   1
M  END
>  <Energy>  (464) 
20.753321795437962

>  <Energy_Delta>  (464) 
7.134595136903954e-10

>  <std_smi>  (464) 
CC(=O)Nc1nc(C)c(-c2ccccn2)s1

>  <enum_smi>  (464) 
CC(=O)Nc1[nH+]c(C)c(-c2cccc[nH+]2)s1

>  <enum_code>  (464) 
M

>  <parent_uuid>  (464) 
38ce1dff-635b-49bf-aa41-0dda23e4ce8b

>  <o3da_score>  (464) 
93.848948067756496

>  <o3da_score_rel>  (464) 
0.37362629812311493

>  <o3da_align>  (464) 
0.4803785889696584

>  <RMSD>  (464) 
6.9086283067383249e-05

>  <CONVERGED>  (464) 
0

>  <ENERGY>  (464) 
20.753321793995994

$$$$
7887936d-579e-4cf6-b58b-75e02d931062
     RDKit          3D

 16 17  0  0  0  0  0  0  0  0999 V2000
    0.6824   32.5948   -0.6230 C   0  0  0  0  0  0  0  0  0  0  0  0
   -0.0842   32.1308    0.5770 C   0  0  0  0  0  0  0  0  0  0  0  0
   -0.3113   32.8056    1.5641 O   0  0  0  0  0  0  0  0  0  0  0  0
   -0.5373   30.7796    0.5066 N   0  0  0  0  0  0  0  0  0  0  0  0
   -1.2556   30.1814    1.4507 C   0  0  0  0  0  0  0  0  0  0  0  0
   -1.5938   28.8886    1.3466 N   0  0  0  0  0  4  0  0  0  0  0  0
   -2.3617   28.4012    2.3976 C   0  0  0  0  0  0  0  0  0  0  0  0
   -2.7240   26.9616    2.3105 C   0  0  0  0  0  0  0  0  0  0  0  0
   -2.6578   29.3530    3.3590 C   0  0  0  0  0  0  0  0  0  0  0  0
   -3.4591   29.2963    4.5955 C   0  0  0  0  0  0  0  0  0  0  0  0
   -4.4867   28.3676    4.8072 C   0  0  0  0  0  0  0  0  0  0  0  0
   -5.1991   28.3805    6.0060 C   0  0  0  0  0  0  0  0  0  0  0  0
   -4.8901   29.3187    6.9817 C   0  0  0  0  0  0  0  0  0  0  0  0
   -3.8769   30.2316    6.7368 C   0  0  0  0  0  0  0  0  0  0  0  0
   -3.2059   30.1960    5.5732 N   0  0  0  0  0  4  0  0  0  0  0  0
   -1.8905   30.8428    2.9271 S   0  0  0  0  0  0  0  0  0  0  0  0
  1  2  1  0
  2  3  2  0
  2  4  1  0
  4  5  1  0
  5  6  2  0
  6  7  1  0
  7  8  1  0
  7  9  2  0
  9 10  1  0
 10 11  2  0
 11 12  1  0
 12 13  2  0
 13 14  1  0
 14 15  2  0
  9 16  1  0
 16  5  1  0
 15 10  1  0
M  CHG  2   6   1  15   1
M  END
>  <Energy>  (465) 
29.678707645971031

>  <Energy_Delta>  (465) 
8.9253858512465278

>  <std_smi>  (465) 
CC(=O)Nc1nc(C)c(-c2ccccn2)s1

>  <enum_smi>  (465) 
CC(=O)Nc1[nH+]c(C)c(-c2cccc[nH+]2)s1

>  <enum_code>  (465) 
M

>  <parent_uuid>  (465) 
38ce1dff-635b-49bf-aa41-0dda23e4ce8b

>  <o3da_score>  (465) 
91.956816616830992

>  <o3da_score_rel>  (465) 
0.36609344789807868

>  <o3da_align>  (465) 
0.38312240023572369

>  <RMSD>  (465) 
6.0182630076899808e-05

>  <CONVERGED>  (465) 
0

>  <ENERGY>  (465) 
29.678707644193217

$$$$
7887936d-579e-4cf6-b58b-75e02d931062
     RDKit          3D

 16 17  0  0  0  0  0  0  0  0999 V2000
    0.9720   32.4352   -0.6698 C   0  0  0  0  0  0  0  0  0  0  0  0
    0.0511   32.1442    0.4748 C   0  0  0  0  0  0  0  0  0  0  0  0
   -0.2707   32.9452    1.3329 O   0  0  0  0  0  0  0  0  0  0  0  0
   -0.4730   30.8172    0.4933 N   0  0  0  0  0  0  0  0  0  0  0  0
   -1.2850   30.3468    1.4337 C   0  0  0  0  0  0  0  0  0  0  0  0
   -1.7899   29.1078    1.3541 N   0  0  0  0  0  4  0  0  0  0  0  0
   -2.6080   28.7429    2.4169 C   0  0  0  0  0  0  0  0  0  0  0  0
   -3.1973   27.3803    2.3314 C   0  0  0  0  0  0  0  0  0  0  0  0
   -2.7373   29.7265    3.3832 C   0  0  0  0  0  0  0  0  0  0  0  0
   -3.4548   29.7621    4.6709 C   0  0  0  0  0  0  0  0  0  0  0  0
   -3.7763   28.6141    5.4071 C   0  0  0  0  0  0  0  0  0  0  0  0
   -4.4567   28.7332    6.6185 C   0  0  0  0  0  0  0  0  0  0  0  0
   -4.8067   29.9907    7.0921 C   0  0  0  0  0  0  0  0  0  0  0  0
   -4.4633   31.1071    6.3467 C   0  0  0  0  0  0  0  0  0  0  0  0
   -3.8083   30.9633    5.1823 N   0  0  0  0  0  4  0  0  0  0  0  0
   -1.8554   31.1272    2.8780 S   0  0  0  0  0  0  0  0  0  0  0  0
  1  2  1  0
  2  3  2  0
  2  4  1  0
  4  5  1  0
  5  6  2  0
  6  7  1  0
  7  8  1  0
  7  9  2  0
  9 10  1  0
 10 11  2  0
 11 12  1  0
 12 13  2  0
 13 14  1  0
 14 15  2  0
  9 16  1  0
 16  5  1  0
 15 10  1  0
M  CHG  2   6   1  15   1
M  END
>  <Energy>  (466) 
29.678707651955641

>  <Energy_Delta>  (466) 
8.925385857231138

>  <std_smi>  (466) 
CC(=O)Nc1nc(C)c(-c2ccccn2)s1

>  <enum_smi>  (466) 
CC(=O)Nc1[nH+]c(C)c(-c2cccc[nH+]2)s1

>  <enum_code>  (466) 
M

>  <parent_uuid>  (466) 
38ce1dff-635b-49bf-aa41-0dda23e4ce8b

>  <o3da_score>  (466) 
82.479586018197409

>  <o3da_score_rel>  (466) 
0.32836321588237072

>  <o3da_align>  (466) 
0.33340440104712482

>  <RMSD>  (466) 
7.1247673583829234e-05

>  <CONVERGED>  (466) 
0

>  <ENERGY>  (466) 
29.678707644213816

$$$$
cb5df988-38b0-495b-9099-0ccb189a64f5
     RDKit          3D

 16 17  0  0  0  0  0  0  0  0999 V2000
   -0.3365   34.7545    2.9118 C   0  0  0  0  0  0  0  0  0  0  0  0
   -0.7441   33.3331    2.6151 C   0  0  0  0  0  0  0  0  0  0  0  0
   -0.3345   32.7335    1.6174 O   0  0  0  0  0  0  0  0  0  0  0  0
   -1.5714   32.8620    3.5554 N   0  0  0  0  0  2  0  0  0  0  0  0
   -1.9896   31.5939    3.3725 C   0  0  0  0  0  0  0  0  0  0  0  0
   -1.6455   30.8271    2.3660 N   0  0  0  0  0  4  0  0  0  0  0  0
   -2.1849   29.5645    2.3687 C   0  0  0  0  0  0  0  0  0  0  0  0
   -1.8033   28.6927    1.2389 C   0  0  0  0  0  0  0  0  0  0  0  0
   -3.0091   29.3388    3.4610 C   0  0  0  0  0  0  0  0  0  0  0  0
   -3.7679   28.1360    3.8310 C   0  0  0  0  0  0  0  0  0  0  0  0
   -4.5699   28.0279    4.9652 C   0  0  0  0  0  0  0  0  0  0  0  0
   -5.2421   26.8307    5.2088 C   0  0  0  0  0  0  0  0  0  0  0  0
   -5.0996   25.7745    4.3200 C   0  0  0  0  0  0  0  0  0  0  0  0
   -4.2861   25.9599    3.2179 C   0  0  0  0  0  0  0  0  0  0  0  0
   -3.6224   27.1090    2.9564 N   0  0  0  0  0  0  0  0  0  0  0  0
   -3.0403   30.7791    4.4284 S   0  0  0  0  0  0  0  0  0  0  0  0
  1  2  1  0
  2  3  2  0
  2  4  1  0
  4  5  1  0
  5  6  2  0
  6  7  1  0
  7  8  1  0
  7  9  2  0
  9 10  1  0
 10 11  2  0
 11 12  1  0
 12 13  2  0
 13 14  1  0
 14 15  2  0
  9 16  1  0
 16  5  1  0
 15 10  1  0
M  CHG  2   4  -1   6   1
M  END
>  <Energy>  (467) 
-29.717222084963964

>  <Energy_Delta>  (467) 
0

>  <std_smi>  (467) 
CC(=O)Nc1nc(C)c(-c2ccccn2)s1

>  <enum_smi>  (467) 
CC(=O)[N-]c1[nH+]c(C)c(-c2ccccn2)s1

>  <enum_code>  (467) 
M

>  <parent_uuid>  (467) 
38ce1dff-635b-49bf-aa41-0dda23e4ce8b

>  <o3da_score>  (467) 
68.873605331478402

>  <o3da_score_rel>  (467) 
0.27419582987562269

>  <o3da_align>  (467) 
0.62744504840910154

>  <RMSD>  (467) 
6.9639450913463525e-05

>  <CONVERGED>  (467) 
0

>  <ENERGY>  (467) 
-29.717222085026869

$$$$
3ab66fdf-ad15-481f-9047-3ea1b6871025
     RDKit          3D

 16 17  0  0  0  0  0  0  0  0999 V2000
   -4.9549   24.3437    2.0522 C   0  0  0  0  0  0  0  0  0  0  0  0
   -4.4269   25.5476    2.7965 C   0  0  0  0  0  0  0  0  0  0  0  0
   -3.7608   26.4110    2.2061 O   0  0  0  0  0  0  0  0  0  0  0  0
   -4.8025   25.4932    4.0859 N   0  0  0  0  0  2  0  0  0  0  0  0
   -4.2967   26.4966    4.8302 C   0  0  0  0  0  0  0  0  0  0  0  0
   -3.2495   26.4197    5.6273 N   0  0  0  0  0  0  0  0  0  0  0  0
   -2.5998   27.6460    5.6289 C   0  0  0  0  0  0  0  0  0  0  0  0
   -1.2359   27.7048    6.2070 C   0  0  0  0  0  0  0  0  0  0  0  0
   -3.2091   28.5392    4.7636 C   0  0  0  0  0  0  0  0  0  0  0  0
   -2.6371   29.3036    3.6886 C   0  0  0  0  0  0  0  0  0  0  0  0
   -2.0365   30.5492    3.8025 C   0  0  0  0  0  0  0  0  0  0  0  0
   -1.5034   31.1380    2.6564 C   0  0  0  0  0  0  0  0  0  0  0  0
   -1.5761   30.4695    1.4331 C   0  0  0  0  0  0  0  0  0  0  0  0
   -2.1808   29.2184    1.3780 C   0  0  0  0  0  0  0  0  0  0  0  0
   -2.6809   28.6826    2.4934 N   0  0  0  0  0  4  0  0  0  0  0  0
   -4.8745   28.1115    4.6409 S   0  0  0  0  0  0  0  0  0  0  0  0
  1  2  1  0
  2  3  2  0
  2  4  1  0
  4  5  1  0
  5  6  2  0
  6  7  1  0
  7  8  1  0
  7  9  2  0
  9 10  1  0
 10 11  2  0
 11 12  1  0
 12 13  2  0
 13 14  1  0
 14 15  2  0
  9 16  1  0
 16  5  1  0
 15 10  1  0
M  CHG  2   4  -1  15   1
M  END
>  <Energy>  (468) 
-22.292590543988926

>  <Energy_Delta>  (468) 
0

>  <std_smi>  (468) 
CC(=O)Nc1nc(C)c(-c2ccccn2)s1

>  <enum_smi>  (468) 
CC(=O)[N-]c1nc(C)c(-c2cccc[nH+]2)s1

>  <enum_code>  (468) 
M

>  <parent_uuid>  (468) 
38ce1dff-635b-49bf-aa41-0dda23e4ce8b

>  <o3da_score>  (468) 
72.161960895721492

>  <o3da_score_rel>  (468) 
0.28728725116138565

>  <o3da_align>  (468) 
0.4189571891639659

>  <RMSD>  (468) 
7.921526806672006e-05

>  <CONVERGED>  (468) 
0

>  <ENERGY>  (468) 
-22.29259054409566

$$$$
3ab66fdf-ad15-481f-9047-3ea1b6871025
     RDKit          3D

 16 17  0  0  0  0  0  0  0  0999 V2000
   -1.7977   23.6391    3.2157 C   0  0  0  0  0  0  0  0  0  0  0  0
   -2.2197   25.0319    3.6209 C   0  0  0  0  0  0  0  0  0  0  0  0
   -2.0085   25.9973    2.8717 O   0  0  0  0  0  0  0  0  0  0  0  0
   -2.7963   25.0037    4.8348 N   0  0  0  0  0  2  0  0  0  0  0  0
   -3.2720   26.2026    5.2258 C   0  0  0  0  0  0  0  0  0  0  0  0
   -4.5287   26.5961    5.1643 N   0  0  0  0  0  0  0  0  0  0  0  0
   -4.5563   27.9635    4.9286 C   0  0  0  0  0  0  0  0  0  0  0  0
   -5.8464   28.5685    4.5194 C   0  0  0  0  0  0  0  0  0  0  0  0
   -3.2778   28.4738    4.7770 C   0  0  0  0  0  0  0  0  0  0  0  0
   -2.7283   29.2558    3.7030 C   0  0  0  0  0  0  0  0  0  0  0  0
   -2.7865   30.6373    3.5868 C   0  0  0  0  0  0  0  0  0  0  0  0
   -2.2255   31.2341    2.4583 C   0  0  0  0  0  0  0  0  0  0  0  0
   -1.6302   30.4413    1.4757 C   0  0  0  0  0  0  0  0  0  0  0  0
   -1.6083   29.0603    1.6386 C   0  0  0  0  0  0  0  0  0  0  0  0
   -2.1543   28.5206    2.7303 N   0  0  0  0  0  4  0  0  0  0  0  0
   -2.1950   27.4748    5.6721 S   0  0  0  0  0  0  0  0  0  0  0  0
  1  2  1  0
  2  3  2  0
  2  4  1  0
  4  5  1  0
  5  6  2  0
  6  7  1  0
  7  8  1  0
  7  9  2  0
  9 10  1  0
 10 11  2  0
 11 12  1  0
 12 13  2  0
 13 14  1  0
 14 15  2  0
  9 16  1  0
 16  5  1  0
 15 10  1  0
M  CHG  2   4  -1  15   1
M  END
>  <Energy>  (469) 
-22.292590543807297

>  <Energy_Delta>  (469) 
1.8162893411499681e-10

>  <std_smi>  (469) 
CC(=O)Nc1nc(C)c(-c2ccccn2)s1

>  <enum_smi>  (469) 
CC(=O)[N-]c1nc(C)c(-c2cccc[nH+]2)s1

>  <enum_code>  (469) 
M

>  <parent_uuid>  (469) 
38ce1dff-635b-49bf-aa41-0dda23e4ce8b

>  <o3da_score>  (469) 
75.451541533343274

>  <o3da_score_rel>  (469) 
0.30038354964226732

>  <o3da_align>  (469) 
0.44923321868414268

>  <RMSD>  (469) 
7.2764944122900434e-05

>  <CONVERGED>  (469) 
0

>  <ENERGY>  (469) 
-22.292590544083474

$$$$
3ab66fdf-ad15-481f-9047-3ea1b6871025
     RDKit          3D

 16 17  0  0  0  0  0  0  0  0999 V2000
   -0.5355   23.6306    6.0239 C   0  0  0  0  0  0  0  0  0  0  0  0
   -1.4081   24.6706    5.3622 C   0  0  0  0  0  0  0  0  0  0  0  0
   -0.9934   25.8292    5.2083 O   0  0  0  0  0  0  0  0  0  0  0  0
   -2.5747   24.1248    4.9775 N   0  0  0  0  0  2  0  0  0  0  0  0
   -3.4421   25.0328    4.4880 C   0  0  0  0  0  0  0  0  0  0  0  0
   -4.3816   25.6529    5.1724 N   0  0  0  0  0  0  0  0  0  0  0  0
   -4.5507   26.9259    4.6497 C   0  0  0  0  0  0  0  0  0  0  0  0
   -5.3271   27.9021    5.4509 C   0  0  0  0  0  0  0  0  0  0  0  0
   -3.6495   27.1747    3.6277 C   0  0  0  0  0  0  0  0  0  0  0  0
   -2.7141   28.2583    3.4910 C   0  0  0  0  0  0  0  0  0  0  0  0
   -2.9483   29.4630    2.8445 C   0  0  0  0  0  0  0  0  0  0  0  0
   -1.9287   30.4144    2.8228 C   0  0  0  0  0  0  0  0  0  0  0  0
   -0.7115   30.1447    3.4510 C   0  0  0  0  0  0  0  0  0  0  0  0
   -0.5350   28.9236    4.0925 C   0  0  0  0  0  0  0  0  0  0  0  0
   -1.5291   28.0330    4.0914 N   0  0  0  0  0  4  0  0  0  0  0  0
   -3.2335   25.6691    2.8991 S   0  0  0  0  0  0  0  0  0  0  0  0
  1  2  1  0
  2  3  2  0
  2  4  1  0
  4  5  1  0
  5  6  2  0
  6  7  1  0
  7  8  1  0
  7  9  2  0
  9 10  1  0
 10 11  2  0
 11 12  1  0
 12 13  2  0
 13 14  1  0
 14 15  2  0
  9 16  1  0
 16  5  1  0
 15 10  1  0
M  CHG  2   4  -1  15   1
M  END
>  <Energy>  (470) 
-3.1303245834377034

>  <Energy_Delta>  (470) 
19.162265960551224

>  <std_smi>  (470) 
CC(=O)Nc1nc(C)c(-c2ccccn2)s1

>  <enum_smi>  (470) 
CC(=O)[N-]c1nc(C)c(-c2cccc[nH+]2)s1

>  <enum_code>  (470) 
M

>  <parent_uuid>  (470) 
38ce1dff-635b-49bf-aa41-0dda23e4ce8b

>  <o3da_score>  (470) 
63.674533026500974

>  <o3da_score_rel>  (470) 
0.25349756762572845

>  <o3da_align>  (470) 
0.69194817825151267

>  <RMSD>  (470) 
1.8442391928134299

>  <CONVERGED>  (470) 
1

>  <ENERGY>  (470) 
-22.070748718259551

$$$$
bf40c577-038e-4a4d-adec-9495ac9b702f
     RDKit          3D

 16 17  0  0  0  0  0  0  0  0999 V2000
   -1.3063   23.1196    6.1397 C   0  0  0  0  0  0  0  0  0  0  0  0
   -1.4307   24.5409    5.6495 C   0  0  0  0  0  0  0  0  0  0  0  0
   -0.4378   25.1735    5.3032 O   0  0  0  0  0  0  0  0  0  0  0  0
   -2.7352   24.9793    5.6155 N   0  0  0  0  0  0  0  0  0  0  0  0
   -3.1689   26.2189    5.2254 C   0  0  0  0  0  0  0  0  0  0  0  0
   -4.4421   26.5126    5.1552 N   0  0  0  0  0  0  0  0  0  0  0  0
   -4.6263   27.8205    4.7256 C   0  0  0  0  0  0  0  0  0  0  0  0
   -6.0347   28.2763    4.5575 C   0  0  0  0  0  0  0  0  0  0  0  0
   -3.4502   28.5247    4.4925 C   0  0  0  0  0  0  0  0  0  0  0  0
   -3.1771   29.8912    4.0480 C   0  0  0  0  0  0  0  0  0  0  0  0
   -4.0570   30.9652    4.2167 C   0  0  0  0  0  0  0  0  0  0  0  0
   -3.6995   32.2314    3.7543 C   0  0  0  0  0  0  0  0  0  0  0  0
   -2.4699   32.4173    3.1342 C   0  0  0  0  0  0  0  0  0  0  0  0
   -1.6185   31.3318    2.9937 C   0  0  0  0  0  0  0  0  0  0  0  0
   -1.9910   30.1265    3.4473 N   0  0  0  0  0  4  0  0  0  0  0  0
   -2.1145   27.4814    4.8111 S   0  0  0  0  0  0  0  0  0  0  0  0
  1  2  1  0
  2  3  2  0
  2  4  1  0
  4  5  1  0
  5  6  2  0
  6  7  1  0
  7  8  1  0
  7  9  2  0
  9 10  1  0
 10 11  2  0
 11 12  1  0
 12 13  2  0
 13 14  1  0
 14 15  2  0
  9 16  1  0
 16  5  1  0
 15 10  1  0
M  CHG  1  15   1
M  END
>  <Energy>  (471) 
-4.0941187304707727

>  <Energy_Delta>  (471) 
0

>  <std_smi>  (471) 
CC(=O)Nc1nc(C)c(-c2ccccn2)s1

>  <enum_smi>  (471) 
CC(=O)Nc1nc(C)c(-c2cccc[nH+]2)s1

>  <enum_code>  (471) 
M

>  <parent_uuid>  (471) 
38ce1dff-635b-49bf-aa41-0dda23e4ce8b

>  <o3da_score>  (471) 
66.34117742994917

>  <o3da_score_rel>  (471) 
0.26411386644829754

>  <o3da_align>  (471) 
0.50658401957119892

>  <RMSD>  (471) 
5.9757989086595616e-05

>  <CONVERGED>  (471) 
0

>  <ENERGY>  (471) 
-4.09411873101591

$$$$
bf40c577-038e-4a4d-adec-9495ac9b702f
     RDKit          3D

 16 17  0  0  0  0  0  0  0  0999 V2000
   -1.2997   23.1511    6.2252 C   0  0  0  0  0  0  0  0  0  0  0  0
   -1.4274   24.5569    5.6928 C   0  0  0  0  0  0  0  0  0  0  0  0
   -0.4296   25.2134    5.4114 O   0  0  0  0  0  0  0  0  0  0  0  0
   -2.7356   24.9775    5.6105 N   0  0  0  0  0  0  0  0  0  0  0  0
   -3.1738   26.1954    5.1618 C   0  0  0  0  0  0  0  0  0  0  0  0
   -4.4390   26.5276    5.1959 N   0  0  0  0  0  0  0  0  0  0  0  0
   -4.6283   27.8108    4.6992 C   0  0  0  0  0  0  0  0  0  0  0  0
   -6.0222   28.3364    4.7204 C   0  0  0  0  0  0  0  0  0  0  0  0
   -3.4679   28.4397    4.2619 C   0  0  0  0  0  0  0  0  0  0  0  0
   -3.2055   29.7545    3.6771 C   0  0  0  0  0  0  0  0  0  0  0  0
   -4.1522   30.5076    2.9750 C   0  0  0  0  0  0  0  0  0  0  0  0
   -3.7990   31.7534    2.4571 C   0  0  0  0  0  0  0  0  0  0  0  0
   -2.5079   32.2345    2.6381 C   0  0  0  0  0  0  0  0  0  0  0  0
   -1.5927   31.4558    3.3303 C   0  0  0  0  0  0  0  0  0  0  0  0
   -1.9626   30.2629    3.8175 N   0  0  0  0  0  4  0  0  0  0  0  0
   -2.1371   27.3728    4.5165 S   0  0  0  0  0  0  0  0  0  0  0  0
  1  2  1  0
  2  3  2  0
  2  4  1  0
  4  5  1  0
  5  6  2  0
  6  7  1  0
  7  8  1  0
  7  9  2  0
  9 10  1  0
 10 11  2  0
 11 12  1  0
 12 13  2  0
 13 14  1  0
 14 15  2  0
  9 16  1  0
 16  5  1  0
 15 10  1  0
M  CHG  1  15   1
M  END
>  <Energy>  (472) 
-4.0941187297884181

>  <Energy_Delta>  (472) 
6.8235461725407731e-10

>  <std_smi>  (472) 
CC(=O)Nc1nc(C)c(-c2ccccn2)s1

>  <enum_smi>  (472) 
CC(=O)Nc1nc(C)c(-c2cccc[nH+]2)s1

>  <enum_code>  (472) 
M

>  <parent_uuid>  (472) 
38ce1dff-635b-49bf-aa41-0dda23e4ce8b

>  <o3da_score>  (472) 
66.288922078823688

>  <o3da_score_rel>  (472) 
0.26390583030297982

>  <o3da_align>  (472) 
0.51551550448272609

>  <RMSD>  (472) 
7.0008237094049076e-05

>  <CONVERGED>  (472) 
0

>  <ENERGY>  (472) 
-4.0941187310224807

$$$$
bf40c577-038e-4a4d-adec-9495ac9b702f
     RDKit          3D

 16 17  0  0  0  0  0  0  0  0999 V2000
   -0.3168   33.2708    1.4776 C   0  0  0  0  0  0  0  0  0  0  0  0
   -1.0783   32.5354    2.5525 C   0  0  0  0  0  0  0  0  0  0  0  0
   -1.4238   33.1121    3.5768 O   0  0  0  0  0  0  0  0  0  0  0  0
   -1.3367   31.2235    2.2161 N   0  0  0  0  0  0  0  0  0  0  0  0
   -1.9980   30.3798    3.0631 C   0  0  0  0  0  0  0  0  0  0  0  0
   -2.4625   30.6018    4.2609 N   0  0  0  0  0  0  0  0  0  0  0  0
   -3.0507   29.4663    4.7835 C   0  0  0  0  0  0  0  0  0  0  0  0
   -3.6347   29.5742    6.1498 C   0  0  0  0  0  0  0  0  0  0  0  0
   -3.0267   28.3659    3.9372 C   0  0  0  0  0  0  0  0  0  0  0  0
   -3.5224   27.0075    4.1167 C   0  0  0  0  0  0  0  0  0  0  0  0
   -3.3836   26.2903    5.3084 C   0  0  0  0  0  0  0  0  0  0  0  0
   -3.8948   24.9971    5.3965 C   0  0  0  0  0  0  0  0  0  0  0  0
   -4.5365   24.4351    4.2989 C   0  0  0  0  0  0  0  0  0  0  0  0
   -4.6514   25.1783    3.1327 C   0  0  0  0  0  0  0  0  0  0  0  0
   -4.1481   26.4207    3.0775 N   0  0  0  0  0  4  0  0  0  0  0  0
   -2.2553   28.8077    2.4551 S   0  0  0  0  0  0  0  0  0  0  0  0
  1  2  1  0
  2  3  2  0
  2  4  1  0
  4  5  1  0
  5  6  2  0
  6  7  1  0
  7  8  1  0
  7  9  2  0
  9 10  1  0
 10 11  2  0
 11 12  1  0
 12 13  2  0
 13 14  1  0
 14 15  2  0
  9 16  1  0
 16  5  1  0
 15 10  1  0
M  CHG  1  15   1
M  END
>  <Energy>  (473) 
2.7857472373116785

>  <Energy_Delta>  (473) 
6.8798659677824512

>  <std_smi>  (473) 
CC(=O)Nc1nc(C)c(-c2ccccn2)s1

>  <enum_smi>  (473) 
CC(=O)Nc1nc(C)c(-c2cccc[nH+]2)s1

>  <enum_code>  (473) 
M

>  <parent_uuid>  (473) 
38ce1dff-635b-49bf-aa41-0dda23e4ce8b

>  <o3da_score>  (473) 
64.685795248870122

>  <o3da_score_rel>  (473) 
0.25752354946521322

>  <o3da_align>  (473) 
0.44061494695611997

>  <RMSD>  (473) 
6.453176633056618e-05

>  <CONVERGED>  (473) 
0

>  <ENERGY>  (473) 
2.7857472372296863

$$$$
bf40c577-038e-4a4d-adec-9495ac9b702f
     RDKit          3D

 16 17  0  0  0  0  0  0  0  0999 V2000
    0.3754   32.6082   -0.9289 C   0  0  0  0  0  0  0  0  0  0  0  0
   -0.1548   32.2070    0.4255 C   0  0  0  0  0  0  0  0  0  0  0  0
   -0.3584   33.0521    1.2890 O   0  0  0  0  0  0  0  0  0  0  0  0
   -0.3787   30.8505    0.5286 N   0  0  0  0  0  0  0  0  0  0  0  0
   -0.8827   30.2884    1.6673 C   0  0  0  0  0  0  0  0  0  0  0  0
   -1.2248   30.8534    2.7913 N   0  0  0  0  0  0  0  0  0  0  0  0
   -1.7125   29.9216    3.6871 C   0  0  0  0  0  0  0  0  0  0  0  0
   -2.1397   30.4255    5.0224 C   0  0  0  0  0  0  0  0  0  0  0  0
   -1.7219   28.6175    3.2108 C   0  0  0  0  0  0  0  0  0  0  0  0
   -2.1612   27.3737    3.8301 C   0  0  0  0  0  0  0  0  0  0  0  0
   -3.3226   27.2676    4.6007 C   0  0  0  0  0  0  0  0  0  0  0  0
   -3.6650   26.0397    5.1633 C   0  0  0  0  0  0  0  0  0  0  0  0
   -2.8485   24.9348    4.9518 C   0  0  0  0  0  0  0  0  0  0  0  0
   -1.7057   25.0802    4.1782 C   0  0  0  0  0  0  0  0  0  0  0  0
   -1.4026   26.2749    3.6485 N   0  0  0  0  0  4  0  0  0  0  0  0
   -1.0812   28.5959    1.6058 S   0  0  0  0  0  0  0  0  0  0  0  0
  1  2  1  0
  2  3  2  0
  2  4  1  0
  4  5  1  0
  5  6  2  0
  6  7  1  0
  7  8  1  0
  7  9  2  0
  9 10  1  0
 10 11  2  0
 11 12  1  0
 12 13  2  0
 13 14  1  0
 14 15  2  0
  9 16  1  0
 16  5  1  0
 15 10  1  0
M  CHG  1  15   1
M  END
>  <Energy>  (474) 
2.7857472376230303

>  <Energy_Delta>  (474) 
6.879865968093803

>  <std_smi>  (474) 
CC(=O)Nc1nc(C)c(-c2ccccn2)s1

>  <enum_smi>  (474) 
CC(=O)Nc1nc(C)c(-c2cccc[nH+]2)s1

>  <enum_code>  (474) 
M

>  <parent_uuid>  (474) 
38ce1dff-635b-49bf-aa41-0dda23e4ce8b

>  <o3da_score>  (474) 
74.026856523073135

>  <o3da_score_rel>  (474) 
0.29471167161552142

>  <o3da_align>  (474) 
0.55339291543476721

>  <RMSD>  (474) 
0.018765699233526067

>  <CONVERGED>  (474) 
0

>  <ENERGY>  (474) 
2.7985355611600404

$$$$
bf40c577-038e-4a4d-adec-9495ac9b702f
     RDKit          3D

 16 17  0  0  0  0  0  0  0  0999 V2000
   -4.6221   29.3215    6.5398 C   0  0  0  0  0  0  0  0  0  0  0  0
   -4.0545   28.9450    5.1938 C   0  0  0  0  0  0  0  0  0  0  0  0
   -4.2434   27.8275    4.7273 O   0  0  0  0  0  0  0  0  0  0  0  0
   -3.3734   29.9831    4.5959 N   0  0  0  0  0  0  0  0  0  0  0  0
   -2.7630   29.8402    3.3824 C   0  0  0  0  0  0  0  0  0  0  0  0
   -2.6663   28.7851    2.6193 N   0  0  0  0  0  0  0  0  0  0  0  0
   -1.9420   29.0678    1.4806 C   0  0  0  0  0  0  0  0  0  0  0  0
   -1.6946   27.9500    0.5285 C   0  0  0  0  0  0  0  0  0  0  0  0
   -1.5368   30.3896    1.3746 C   0  0  0  0  0  0  0  0  0  0  0  0
   -0.8378   31.0691    0.2983 C   0  0  0  0  0  0  0  0  0  0  0  0
    0.3766   31.7379    0.4678 C   0  0  0  0  0  0  0  0  0  0  0  0
    0.9763   32.3542   -0.6279 C   0  0  0  0  0  0  0  0  0  0  0  0
    0.3586   32.2967   -1.8725 C   0  0  0  0  0  0  0  0  0  0  0  0
   -0.8492   31.6235   -1.9965 C   0  0  0  0  0  0  0  0  0  0  0  0
   -1.4032   31.0373   -0.9238 N   0  0  0  0  0  4  0  0  0  0  0  0
   -2.0254   31.2553    2.7812 S   0  0  0  0  0  0  0  0  0  0  0  0
  1  2  1  0
  2  3  2  0
  2  4  1  0
  4  5  1  0
  5  6  2  0
  6  7  1  0
  7  8  1  0
  7  9  2  0
  9 10  1  0
 10 11  2  0
 11 12  1  0
 12 13  2  0
 13 14  1  0
 14 15  2  0
  9 16  1  0
 16  5  1  0
 15 10  1  0
M  CHG  1  15   1
M  END
>  <Energy>  (475) 
3.5992789308308968

>  <Energy_Delta>  (475) 
7.6933976613016695

>  <std_smi>  (475) 
CC(=O)Nc1nc(C)c(-c2ccccn2)s1

>  <enum_smi>  (475) 
CC(=O)Nc1nc(C)c(-c2cccc[nH+]2)s1

>  <enum_code>  (475) 
M

>  <parent_uuid>  (475) 
38ce1dff-635b-49bf-aa41-0dda23e4ce8b

>  <o3da_score>  (475) 
71.260145905681654

>  <o3da_score_rel>  (475) 
0.28369699465603565

>  <o3da_align>  (475) 
0.41691622559307367

>  <RMSD>  (475) 
7.0988706536223589e-05

>  <CONVERGED>  (475) 
0

>  <ENERGY>  (475) 
3.5992789306168671

$$$$
bf40c577-038e-4a4d-adec-9495ac9b702f
     RDKit          3D

 16 17  0  0  0  0  0  0  0  0999 V2000
   -0.9728   34.2208    3.1792 C   0  0  0  0  0  0  0  0  0  0  0  0
   -1.0026   32.8445    2.5624 C   0  0  0  0  0  0  0  0  0  0  0  0
   -0.4970   32.6415    1.4645 O   0  0  0  0  0  0  0  0  0  0  0  0
   -1.6677   31.9262    3.3457 N   0  0  0  0  0  0  0  0  0  0  0  0
   -1.7858   30.6162    2.9774 C   0  0  0  0  0  0  0  0  0  0  0  0
   -1.3085   30.0008    1.9294 N   0  0  0  0  0  0  0  0  0  0  0  0
   -1.6431   28.6633    1.9511 C   0  0  0  0  0  0  0  0  0  0  0  0
   -1.1258   27.8077    0.8478 C   0  0  0  0  0  0  0  0  0  0  0  0
   -2.4393   28.2908    3.0235 C   0  0  0  0  0  0  0  0  0  0  0  0
   -3.0477   27.0095    3.3348 C   0  0  0  0  0  0  0  0  0  0  0  0
   -2.8236   26.3182    4.5275 C   0  0  0  0  0  0  0  0  0  0  0  0
   -3.4465   25.0894    4.7328 C   0  0  0  0  0  0  0  0  0  0  0  0
   -4.2824   24.5696    3.7504 C   0  0  0  0  0  0  0  0  0  0  0  0
   -4.4795   25.2907    2.5805 C   0  0  0  0  0  0  0  0  0  0  0  0
   -3.8647   26.4713    2.4092 N   0  0  0  0  0  4  0  0  0  0  0  0
   -2.6968   29.6511    4.0482 S   0  0  0  0  0  0  0  0  0  0  0  0
  1  2  1  0
  2  3  2  0
  2  4  1  0
  4  5  1  0
  5  6  2  0
  6  7  1  0
  7  8  1  0
  7  9  2  0
  9 10  1  0
 10 11  2  0
 11 12  1  0
 12 13  2  0
 13 14  1  0
 14 15  2  0
  9 16  1  0
 16  5  1  0
 15 10  1  0
M  CHG  1  15   1
M  END
>  <Energy>  (476) 
3.599278931083961

>  <Energy_Delta>  (476) 
7.6933976615547337

>  <std_smi>  (476) 
CC(=O)Nc1nc(C)c(-c2ccccn2)s1

>  <enum_smi>  (476) 
CC(=O)Nc1nc(C)c(-c2cccc[nH+]2)s1

>  <enum_code>  (476) 
M

>  <parent_uuid>  (476) 
38ce1dff-635b-49bf-aa41-0dda23e4ce8b

>  <o3da_score>  (476) 
65.557558578537339

>  <o3da_score_rel>  (476) 
0.26099416594423747

>  <o3da_align>  (476) 
0.69448377890266877

>  <RMSD>  (476) 
5.1246131086837474e-05

>  <CONVERGED>  (476) 
0

>  <ENERGY>  (476) 
3.5992789306100041

$$$$
4ccbde05-ad72-4a71-92e8-f5f6debb7d19
     RDKit          3D

 16 17  0  0  0  0  0  0  0  0999 V2000
   -4.5308   30.3483    4.9270 C   0  0  0  0  0  0  0  0  0  0  0  0
   -3.7964   29.0370    5.0565 C   0  0  0  0  0  0  0  0  0  0  0  0
   -2.6167   29.0094    5.3913 O   0  0  0  0  0  0  0  0  0  0  0  0
   -4.5871   27.9540    4.7162 N   0  0  0  0  0  0  0  0  0  0  0  0
   -4.2280   26.5901    4.7571 C   0  0  0  0  0  0  0  0  0  0  0  0
   -5.1290   25.6719    4.2063 C   0  0  0  0  0  0  0  0  0  0  0  0
   -4.8403   24.3070    4.2103 C   0  0  0  0  0  0  0  0  0  0  0  0
   -3.6434   23.8519    4.7615 C   0  0  0  0  0  0  0  0  0  0  0  0
   -2.7230   24.7520    5.3133 C   0  0  0  0  0  0  0  0  0  0  0  0
   -1.4798   24.2327    5.8965 C   0  0  0  0  0  0  0  0  0  0  0  0
   -1.3986   23.1057    6.5877 N   0  0  0  0  0  0  0  0  0  0  0  0
   -0.0910   22.9722    6.9663 C   0  0  0  0  0  0  0  0  0  0  0  0
    0.6601   24.0105    6.4791 C   0  0  0  0  0  0  0  0  0  0  0  0
   -0.2218   24.7942    5.7820 N   0  0  0  0  0  0  0  0  0  0  0  0
    0.1600   25.9552    5.0131 C   0  0  0  0  0  0  0  0  0  0  0  0
   -3.0413   26.1187    5.3264 C   0  0  0  0  0  0  0  0  0  0  0  0
  1  2  1  0
  2  3  2  0
  2  4  1  0
  4  5  1  0
  5  6  2  0
  6  7  1  0
  7  8  2  0
  8  9  1  0
  9 10  1  0
 10 11  2  0
 11 12  1  0
 12 13  2  0
 13 14  1  0
 14 15  1  0
  9 16  2  0
 16  5  1  0
 14 10  1  0
M  END
>  <Energy>  (477) 
6.3375583154624593

>  <Energy_Delta>  (477) 
0

>  <std_smi>  (477) 
CC(=O)Nc1cccc(-c2nccn2C)c1

>  <enum_smi>  (477) 
CC(=O)Nc1cccc(-c2nccn2C)c1

>  <enum_code>  (477) 
B

>  <o3da_score>  (477) 
73.901462047476613

>  <o3da_score_rel>  (477) 
0.29421245798887119

>  <o3da_align>  (477) 
0.19813711229874037

>  <RMSD>  (477) 
5.4593169331976742e-05

>  <CONVERGED>  (477) 
0

>  <ENERGY>  (477) 
6.3375583154095283

$$$$
4ccbde05-ad72-4a71-92e8-f5f6debb7d19
     RDKit          3D

 16 17  0  0  0  0  0  0  0  0999 V2000
    0.7834   24.2014    6.4587 C   0  0  0  0  0  0  0  0  0  0  0  0
   -0.3721   25.0628    6.0133 C   0  0  0  0  0  0  0  0  0  0  0  0
   -0.2734   26.2853    5.9984 O   0  0  0  0  0  0  0  0  0  0  0  0
   -1.4622   24.3140    5.6073 N   0  0  0  0  0  0  0  0  0  0  0  0
   -2.7120   24.7979    5.1661 C   0  0  0  0  0  0  0  0  0  0  0  0
   -3.6134   23.8647    4.6419 C   0  0  0  0  0  0  0  0  0  0  0  0
   -4.8674   24.2707    4.1851 C   0  0  0  0  0  0  0  0  0  0  0  0
   -5.2262   25.6165    4.2450 C   0  0  0  0  0  0  0  0  0  0  0  0
   -4.3389   26.5702    4.7599 C   0  0  0  0  0  0  0  0  0  0  0  0
   -4.7585   27.9759    4.8189 C   0  0  0  0  0  0  0  0  0  0  0  0
   -5.9867   28.3717    5.1179 N   0  0  0  0  0  0  0  0  0  0  0  0
   -5.9774   29.7389    5.0793 C   0  0  0  0  0  0  0  0  0  0  0  0
   -4.7381   30.2025    4.7206 C   0  0  0  0  0  0  0  0  0  0  0  0
   -3.9757   29.0792    4.5342 N   0  0  0  0  0  0  0  0  0  0  0  0
   -2.6158   29.0952    4.0492 C   0  0  0  0  0  0  0  0  0  0  0  0
   -3.0924   26.1412    5.2408 C   0  0  0  0  0  0  0  0  0  0  0  0
  1  2  1  0
  2  3  2  0
  2  4  1  0
  4  5  1  0
  5  6  2  0
  6  7  1  0
  7  8  2  0
  8  9  1  0
  9 10  1  0
 10 11  2  0
 11 12  1  0
 12 13  2  0
 13 14  1  0
 14 15  1  0
  9 16  2  0
 16  5  1  0
 14 10  1  0
M  END
>  <Energy>  (478) 
6.3375583157321156

>  <Energy_Delta>  (478) 
2.6965629729147622e-10

>  <std_smi>  (478) 
CC(=O)Nc1cccc(-c2nccn2C)c1

>  <enum_smi>  (478) 
CC(=O)Nc1cccc(-c2nccn2C)c1

>  <enum_code>  (478) 
B

>  <o3da_score>  (478) 
83.132872501877259

>  <o3da_score_rel>  (478) 
0.33096404429373394

>  <o3da_align>  (478) 
0.32414184774963312

>  <RMSD>  (478) 
6.0203405828929984e-05

>  <CONVERGED>  (478) 
0

>  <ENERGY>  (478) 
6.3375583154053929

$$$$
4ccbde05-ad72-4a71-92e8-f5f6debb7d19
     RDKit          3D

 16 17  0  0  0  0  0  0  0  0999 V2000
   -0.2725   32.5589    1.3394 C   0  0  0  0  0  0  0  0  0  0  0  0
   -1.0556   32.5343    2.6286 C   0  0  0  0  0  0  0  0  0  0  0  0
   -1.0159   33.4830    3.4038 O   0  0  0  0  0  0  0  0  0  0  0  0
   -1.7518   31.3510    2.7933 N   0  0  0  0  0  0  0  0  0  0  0  0
   -2.5633   30.9749    3.8838 C   0  0  0  0  0  0  0  0  0  0  0  0
   -2.7745   31.7679    5.0113 C   0  0  0  0  0  0  0  0  0  0  0  0
   -3.5774   31.3085    6.0589 C   0  0  0  0  0  0  0  0  0  0  0  0
   -4.1881   30.0566    5.9817 C   0  0  0  0  0  0  0  0  0  0  0  0
   -4.0135   29.2570    4.8480 C   0  0  0  0  0  0  0  0  0  0  0  0
   -4.6349   27.9358    4.7204 C   0  0  0  0  0  0  0  0  0  0  0  0
   -4.0083   26.8576    4.2769 N   0  0  0  0  0  0  0  0  0  0  0  0
   -4.9182   25.8363    4.3125 C   0  0  0  0  0  0  0  0  0  0  0  0
   -6.1364   26.2909    4.7490 C   0  0  0  0  0  0  0  0  0  0  0  0
   -5.9557   27.6283    4.9817 N   0  0  0  0  0  0  0  0  0  0  0  0
   -7.0096   28.5405    5.3558 C   0  0  0  0  0  0  0  0  0  0  0  0
   -3.1834   29.7201    3.8148 C   0  0  0  0  0  0  0  0  0  0  0  0
  1  2  1  0
  2  3  2  0
  2  4  1  0
  4  5  1  0
  5  6  2  0
  6  7  1  0
  7  8  2  0
  8  9  1  0
  9 10  1  0
 10 11  2  0
 11 12  1  0
 12 13  2  0
 13 14  1  0
 14 15  1  0
  9 16  2  0
 16  5  1  0
 14 10  1  0
M  END
>  <Energy>  (479) 
7.0271639398732288

>  <Energy_Delta>  (479) 
0.68960562441076956

>  <std_smi>  (479) 
CC(=O)Nc1cccc(-c2nccn2C)c1

>  <enum_smi>  (479) 
CC(=O)Nc1cccc(-c2nccn2C)c1

>  <enum_code>  (479) 
B

>  <o3da_score>  (479) 
79.389668422587732

>  <o3da_score_rel>  (479) 
0.31606180498195641

>  <o3da_align>  (479) 
0.40777292208758087

>  <RMSD>  (479) 
0.016794364019041254

>  <CONVERGED>  (479) 
0

>  <ENERGY>  (479) 
7.045925196179228

$$$$
4ccbde05-ad72-4a71-92e8-f5f6debb7d19
     RDKit          3D

 16 17  0  0  0  0  0  0  0  0999 V2000
   -2.6172   32.0473    2.9561 C   0  0  0  0  0  0  0  0  0  0  0  0
   -2.5452   31.0476    4.0837 C   0  0  0  0  0  0  0  0  0  0  0  0
   -1.8747   31.2795    5.0834 O   0  0  0  0  0  0  0  0  0  0  0  0
   -3.2704   29.9017    3.8140 N   0  0  0  0  0  0  0  0  0  0  0  0
   -3.4374   28.7743    4.6449 C   0  0  0  0  0  0  0  0  0  0  0  0
   -2.9070   28.6652    5.9300 C   0  0  0  0  0  0  0  0  0  0  0  0
   -3.1407   27.5204    6.6968 C   0  0  0  0  0  0  0  0  0  0  0  0
   -3.8966   26.4682    6.1795 C   0  0  0  0  0  0  0  0  0  0  0  0
   -4.4149   26.5448    4.8831 C   0  0  0  0  0  0  0  0  0  0  0  0
   -5.2142   25.4656    4.2963 C   0  0  0  0  0  0  0  0  0  0  0  0
   -6.3364   25.6528    3.6200 N   0  0  0  0  0  0  0  0  0  0  0  0
   -6.7772   24.4124    3.2466 C   0  0  0  0  0  0  0  0  0  0  0  0
   -5.9009   23.4434    3.6638 C   0  0  0  0  0  0  0  0  0  0  0  0
   -4.8993   24.1209    4.3068 N   0  0  0  0  0  0  0  0  0  0  0  0
   -3.6989   23.5068    4.8209 C   0  0  0  0  0  0  0  0  0  0  0  0
   -4.1941   27.7114    4.1339 C   0  0  0  0  0  0  0  0  0  0  0  0
  1  2  1  0
  2  3  2  0
  2  4  1  0
  4  5  1  0
  5  6  2  0
  6  7  1  0
  7  8  2  0
  8  9  1  0
  9 10  1  0
 10 11  2  0
 11 12  1  0
 12 13  2  0
 13 14  1  0
 14 15  1  0
  9 16  2  0
 16  5  1  0
 14 10  1  0
M  END
>  <Energy>  (480) 
7.0271639399849999

>  <Energy_Delta>  (480) 
0.68960562452254059

>  <std_smi>  (480) 
CC(=O)Nc1cccc(-c2nccn2C)c1

>  <enum_smi>  (480) 
CC(=O)Nc1cccc(-c2nccn2C)c1

>  <enum_code>  (480) 
B

>  <o3da_score>  (480) 
67.655360883684978

>  <o3da_score_rel>  (480) 
0.26934582172305949

>  <o3da_align>  (480) 
0.44539958833968663

>  <RMSD>  (480) 
5.6358642275202395e-05

>  <CONVERGED>  (480) 
0

>  <ENERGY>  (480) 
7.0271639396553693

$$$$
4ccbde05-ad72-4a71-92e8-f5f6debb7d19
     RDKit          3D

 16 17  0  0  0  0  0  0  0  0999 V2000
   -6.0117   29.9146    4.9230 C   0  0  0  0  0  0  0  0  0  0  0  0
   -5.9117   28.4687    4.5038 C   0  0  0  0  0  0  0  0  0  0  0  0
   -6.7535   27.9726    3.7640 O   0  0  0  0  0  0  0  0  0  0  0  0
   -4.7842   27.8521    5.0163 N   0  0  0  0  0  0  0  0  0  0  0  0
   -4.3917   26.5066    4.8517 C   0  0  0  0  0  0  0  0  0  0  0  0
   -5.1465   25.5527    4.1676 C   0  0  0  0  0  0  0  0  0  0  0  0
   -4.7024   24.2307    4.0741 C   0  0  0  0  0  0  0  0  0  0  0  0
   -3.4924   23.8546    4.6542 C   0  0  0  0  0  0  0  0  0  0  0  0
   -2.7093   24.8004    5.3208 C   0  0  0  0  0  0  0  0  0  0  0  0
   -1.4364   24.3943    5.9136 C   0  0  0  0  0  0  0  0  0  0  0  0
   -1.2913   23.4400    6.8160 N   0  0  0  0  0  0  0  0  0  0  0  0
    0.0463   23.3797    7.1014 C   0  0  0  0  0  0  0  0  0  0  0  0
    0.7432   24.2930    6.3504 C   0  0  0  0  0  0  0  0  0  0  0  0
   -0.2032   24.9194    5.5861 N   0  0  0  0  0  0  0  0  0  0  0  0
    0.0728   25.9096    4.5736 C   0  0  0  0  0  0  0  0  0  0  0  0
   -3.1735   26.1201    5.4290 C   0  0  0  0  0  0  0  0  0  0  0  0
  1  2  1  0
  2  3  2  0
  2  4  1  0
  4  5  1  0
  5  6  2  0
  6  7  1  0
  7  8  2  0
  8  9  1  0
  9 10  1  0
 10 11  2  0
 11 12  1  0
 12 13  2  0
 13 14  1  0
 14 15  1  0
  9 16  2  0
 16  5  1  0
 14 10  1  0
M  END
>  <Energy>  (481) 
8.5638584279418701

>  <Energy_Delta>  (481) 
2.2263001124794108

>  <std_smi>  (481) 
CC(=O)Nc1cccc(-c2nccn2C)c1

>  <enum_smi>  (481) 
CC(=O)Nc1cccc(-c2nccn2C)c1

>  <enum_code>  (481) 
B

>  <o3da_score>  (481) 
72.486662500848212

>  <o3da_score_rel>  (481) 
0.28857993542920019

>  <o3da_align>  (481) 
0.27661304974088274

>  <RMSD>  (481) 
7.7257920979406923e-05

>  <CONVERGED>  (481) 
0

>  <ENERGY>  (481) 
8.563858427542236

$$$$
4ccbde05-ad72-4a71-92e8-f5f6debb7d19
     RDKit          3D

 16 17  0  0  0  0  0  0  0  0999 V2000
   -4.3636   30.3597    5.0652 C   0  0  0  0  0  0  0  0  0  0  0  0
   -3.6578   29.0267    5.0954 C   0  0  0  0  0  0  0  0  0  0  0  0
   -2.4704   28.9529    5.3886 O   0  0  0  0  0  0  0  0  0  0  0  0
   -4.5079   27.9809    4.7820 N   0  0  0  0  0  0  0  0  0  0  0  0
   -4.1998   26.6042    4.7469 C   0  0  0  0  0  0  0  0  0  0  0  0
   -2.9488   26.0766    5.0702 C   0  0  0  0  0  0  0  0  0  0  0  0
   -2.7314   24.6962    5.0380 C   0  0  0  0  0  0  0  0  0  0  0  0
   -3.7608   23.8324    4.6690 C   0  0  0  0  0  0  0  0  0  0  0  0
   -5.0125   24.3425    4.3151 C   0  0  0  0  0  0  0  0  0  0  0  0
   -6.0790   23.4252    3.9177 C   0  0  0  0  0  0  0  0  0  0  0  0
   -6.5405   22.4335    4.6593 N   0  0  0  0  0  0  0  0  0  0  0  0
   -7.5236   21.8276    3.9240 C   0  0  0  0  0  0  0  0  0  0  0  0
   -7.6589   22.4367    2.7015 C   0  0  0  0  0  0  0  0  0  0  0  0
   -6.7256   23.4374    2.6989 N   0  0  0  0  0  0  0  0  0  0  0  0
   -6.4414   24.3014    1.5788 C   0  0  0  0  0  0  0  0  0  0  0  0
   -5.2284   25.7277    4.3718 C   0  0  0  0  0  0  0  0  0  0  0  0
  1  2  1  0
  2  3  2  0
  2  4  1  0
  4  5  1  0
  5  6  2  0
  6  7  1  0
  7  8  2  0
  8  9  1  0
  9 10  1  0
 10 11  2  0
 11 12  1  0
 12 13  2  0
 13 14  1  0
 14 15  1  0
  9 16  2  0
 16  5  1  0
 14 10  1  0
M  END
>  <Energy>  (482) 
8.5638584282489525

>  <Energy_Delta>  (482) 
2.2263001127864932

>  <std_smi>  (482) 
CC(=O)Nc1cccc(-c2nccn2C)c1

>  <enum_smi>  (482) 
CC(=O)Nc1cccc(-c2nccn2C)c1

>  <enum_code>  (482) 
B

>  <o3da_score>  (482) 
72.911284826828393

>  <o3da_score_rel>  (482) 
0.29027041860480124

>  <o3da_align>  (482) 
0.26693666753810885

>  <RMSD>  (482) 
0.017353683286089491

>  <CONVERGED>  (482) 
0

>  <ENERGY>  (482) 
8.5910312206090147

$$$$
c62cfa3b-6e07-484c-865b-17fec0878df0
     RDKit          3D

 16 17  0  0  0  0  0  0  0  0999 V2000
   -7.6592   23.0664    2.1069 C   0  0  0  0  0  0  0  0  0  0  0  0
   -7.1029   23.6750    3.1557 C   0  0  0  0  0  0  0  0  0  0  0  0
   -7.8823   24.5371    3.8855 O   0  0  0  0  0  0  0  0  0  0  0  0
   -5.8394   23.4242    3.6207 N   0  0  0  0  0  0  0  0  0  0  0  0
   -4.8935   24.3491    4.1202 C   0  0  0  0  0  0  0  0  0  0  0  0
   -3.7336   23.8462    4.7273 C   0  0  0  0  0  0  0  0  0  0  0  0
   -2.7885   24.7025    5.2937 C   0  0  0  0  0  0  0  0  0  0  0  0
   -2.9918   26.0802    5.2589 C   0  0  0  0  0  0  0  0  0  0  0  0
   -4.1338   26.6146    4.6518 C   0  0  0  0  0  0  0  0  0  0  0  0
   -4.3206   28.0684    4.6367 C   0  0  0  0  0  0  0  0  0  0  0  0
   -4.1071   28.8587    5.6766 N   0  0  0  0  0  0  0  0  0  0  0  0
   -4.3984   30.1307    5.2652 C   0  0  0  0  0  0  0  0  0  0  0  0
   -4.7687   30.1377    3.9446 C   0  0  0  0  0  0  0  0  0  0  0  0
   -4.6952   28.8293    3.5465 N   0  0  0  0  0  0  0  0  0  0  0  0
   -4.9071   28.3761    2.1928 C   0  0  0  0  0  0  0  0  0  0  0  0
   -5.0864   25.7383    4.1083 C   0  0  0  0  0  0  0  0  0  0  0  0
  1  2  2  3
  2  3  1  0
  2  4  1  0
  4  5  1  0
  5  6  2  0
  6  7  1  0
  7  8  2  0
  8  9  1  0
  9 10  1  0
 10 11  2  0
 11 12  1  0
 12 13  2  0
 13 14  1  0
 14 15  1  0
  9 16  2  0
 16  5  1  0
 14 10  1  0
M  END
>  <Energy>  (483) 
-20.205497109073178

>  <Energy_Delta>  (483) 
0

>  <std_smi>  (483) 
CC(=O)Nc1cccc(-c2nccn2C)c1

>  <enum_smi>  (483) 
C=C(O)Nc1cccc(-c2nccn2C)c1

>  <enum_code>  (483) 
T

>  <parent_uuid>  (483) 
4ccbde05-ad72-4a71-92e8-f5f6debb7d19

>  <o3da_score>  (483) 
68.653255313709053

>  <o3da_score_rel>  (483) 
0.27331858443893342

>  <o3da_align>  (483) 
0.32998311390513463

>  <RMSD>  (483) 
5.6025829663591938e-05

>  <CONVERGED>  (483) 
0

>  <ENERGY>  (483) 
-20.205497110556628

$$$$
c62cfa3b-6e07-484c-865b-17fec0878df0
     RDKit          3D

 16 17  0  0  0  0  0  0  0  0999 V2000
   -3.6438   30.1936    4.6654 C   0  0  0  0  0  0  0  0  0  0  0  0
   -3.7722   28.9959    5.2388 C   0  0  0  0  0  0  0  0  0  0  0  0
   -3.1994   28.8070    6.4715 O   0  0  0  0  0  0  0  0  0  0  0  0
   -4.5239   27.9669    4.7361 N   0  0  0  0  0  0  0  0  0  0  0  0
   -4.2004   26.5902    4.7090 C   0  0  0  0  0  0  0  0  0  0  0  0
   -2.9598   26.0772    5.1043 C   0  0  0  0  0  0  0  0  0  0  0  0
   -2.7112   24.7026    5.0793 C   0  0  0  0  0  0  0  0  0  0  0  0
   -3.7108   23.8168    4.6779 C   0  0  0  0  0  0  0  0  0  0  0  0
   -4.9716   24.2976    4.3112 C   0  0  0  0  0  0  0  0  0  0  0  0
   -6.0493   23.4024    3.8841 C   0  0  0  0  0  0  0  0  0  0  0  0
   -6.7924   23.5883    2.8053 N   0  0  0  0  0  0  0  0  0  0  0  0
   -7.6735   22.5424    2.7558 C   0  0  0  0  0  0  0  0  0  0  0  0
   -7.4978   21.7117    3.8332 C   0  0  0  0  0  0  0  0  0  0  0  0
   -6.4814   22.2764    4.5563 N   0  0  0  0  0  0  0  0  0  0  0  0
   -6.0205   21.7932    5.8354 C   0  0  0  0  0  0  0  0  0  0  0  0
   -5.1980   25.6827    4.3202 C   0  0  0  0  0  0  0  0  0  0  0  0
  1  2  2  3
  2  3  1  0
  2  4  1  0
  4  5  1  0
  5  6  2  0
  6  7  1  0
  7  8  2  0
  8  9  1  0
  9 10  1  0
 10 11  2  0
 11 12  1  0
 12 13  2  0
 13 14  1  0
 14 15  1  0
  9 16  2  0
 16  5  1  0
 14 10  1  0
M  END
>  <Energy>  (484) 
-19.831483125583688

>  <Energy_Delta>  (484) 
0.37401398348949044

>  <std_smi>  (484) 
CC(=O)Nc1cccc(-c2nccn2C)c1

>  <enum_smi>  (484) 
C=C(O)Nc1cccc(-c2nccn2C)c1

>  <enum_code>  (484) 
T

>  <parent_uuid>  (484) 
4ccbde05-ad72-4a71-92e8-f5f6debb7d19

>  <o3da_score>  (484) 
71.578537330227817

>  <o3da_score_rel>  (484) 
0.2849645571781157

>  <o3da_align>  (484) 
0.22361110041307383

>  <RMSD>  (484) 
6.1981494175994574e-05

>  <CONVERGED>  (484) 
0

>  <ENERGY>  (484) 
-19.831483126213488

$$$$
c62cfa3b-6e07-484c-865b-17fec0878df0
     RDKit          3D

 16 17  0  0  0  0  0  0  0  0999 V2000
   -1.3941   30.9480    1.5480 C   0  0  0  0  0  0  0  0  0  0  0  0
   -1.7340   30.3667    2.6996 C   0  0  0  0  0  0  0  0  0  0  0  0
   -1.9832   31.1760    3.7796 O   0  0  0  0  0  0  0  0  0  0  0  0
   -1.7490   29.0146    2.9145 N   0  0  0  0  0  0  0  0  0  0  0  0
   -2.6769   28.2587    3.6660 C   0  0  0  0  0  0  0  0  0  0  0  0
   -3.8407   28.7968    4.2270 C   0  0  0  0  0  0  0  0  0  0  0  0
   -4.6871   28.0136    5.0156 C   0  0  0  0  0  0  0  0  0  0  0  0
   -4.3809   26.6744    5.2550 C   0  0  0  0  0  0  0  0  0  0  0  0
   -3.2320   26.1044    4.6978 C   0  0  0  0  0  0  0  0  0  0  0  0
   -2.8703   24.7040    4.9301 C   0  0  0  0  0  0  0  0  0  0  0  0
   -1.6624   24.2910    5.2778 N   0  0  0  0  0  0  0  0  0  0  0  0
   -1.7367   22.9301    5.3997 C   0  0  0  0  0  0  0  0  0  0  0  0
   -2.9979   22.4864    5.0932 C   0  0  0  0  0  0  0  0  0  0  0  0
   -3.7047   23.6149    4.7736 N   0  0  0  0  0  0  0  0  0  0  0  0
   -5.0628   23.6182    4.2860 C   0  0  0  0  0  0  0  0  0  0  0  0
   -2.3806   26.9116    3.9269 C   0  0  0  0  0  0  0  0  0  0  0  0
  1  2  2  3
  2  3  1  0
  2  4  1  0
  4  5  1  0
  5  6  2  0
  6  7  1  0
  7  8  2  0
  8  9  1  0
  9 10  1  0
 10 11  2  0
 11 12  1  0
 12 13  2  0
 13 14  1  0
 14 15  1  0
  9 16  2  0
 16  5  1  0
 14 10  1  0
M  END
>  <Energy>  (485) 
-19.633817218337427

>  <Energy_Delta>  (485) 
0.57167989073575143

>  <std_smi>  (485) 
CC(=O)Nc1cccc(-c2nccn2C)c1

>  <enum_smi>  (485) 
C=C(O)Nc1cccc(-c2nccn2C)c1

>  <enum_code>  (485) 
T

>  <parent_uuid>  (485) 
4ccbde05-ad72-4a71-92e8-f5f6debb7d19

>  <o3da_score>  (485) 
79.752045243166847

>  <o3da_score_rel>  (485) 
0.31750447975654039

>  <o3da_align>  (485) 
0.58277105934941908

>  <RMSD>  (485) 
6.5844978877295941e-05

>  <CONVERGED>  (485) 
0

>  <ENERGY>  (485) 
-19.633817218815981

$$$$
c62cfa3b-6e07-484c-865b-17fec0878df0
     RDKit          3D

 16 17  0  0  0  0  0  0  0  0999 V2000
   -0.7058   30.4973    0.6463 C   0  0  0  0  0  0  0  0  0  0  0  0
   -1.4744   30.1974    1.6946 C   0  0  0  0  0  0  0  0  0  0  0  0
   -1.5811   31.1250    2.7003 O   0  0  0  0  0  0  0  0  0  0  0  0
   -2.2523   29.0751    1.7937 N   0  0  0  0  0  0  0  0  0  0  0  0
   -2.4933   28.2758    2.9339 C   0  0  0  0  0  0  0  0  0  0  0  0
   -1.8417   28.4576    4.1591 C   0  0  0  0  0  0  0  0  0  0  0  0
   -2.1697   27.6772    5.2705 C   0  0  0  0  0  0  0  0  0  0  0  0
   -3.1580   26.6985    5.1720 C   0  0  0  0  0  0  0  0  0  0  0  0
   -3.8181   26.4842    3.9581 C   0  0  0  0  0  0  0  0  0  0  0  0
   -4.8668   25.4715    3.8139 C   0  0  0  0  0  0  0  0  0  0  0  0
   -6.0375   25.6840    3.2354 N   0  0  0  0  0  0  0  0  0  0  0  0
   -6.7260   24.5035    3.3056 C   0  0  0  0  0  0  0  0  0  0  0  0
   -5.9628   23.5348    3.9062 C   0  0  0  0  0  0  0  0  0  0  0  0
   -4.7764   24.1501    4.2045 N   0  0  0  0  0  0  0  0  0  0  0  0
   -3.6252   23.4804    4.7599 C   0  0  0  0  0  0  0  0  0  0  0  0
   -3.4924   27.2927    2.8576 C   0  0  0  0  0  0  0  0  0  0  0  0
  1  2  2  3
  2  3  1  0
  2  4  1  0
  4  5  1  0
  5  6  2  0
  6  7  1  0
  7  8  2  0
  8  9  1  0
  9 10  1  0
 10 11  2  0
 11 12  1  0
 12 13  2  0
 13 14  1  0
 14 15  1  0
  9 16  2  0
 16  5  1  0
 14 10  1  0
M  END
>  <Energy>  (486) 
-19.633817218246058

>  <Energy_Delta>  (486) 
0.57167989082712012

>  <std_smi>  (486) 
CC(=O)Nc1cccc(-c2nccn2C)c1

>  <enum_smi>  (486) 
C=C(O)Nc1cccc(-c2nccn2C)c1

>  <enum_code>  (486) 
T

>  <parent_uuid>  (486) 
4ccbde05-ad72-4a71-92e8-f5f6debb7d19

>  <o3da_score>  (486) 
78.036533988100274

>  <o3da_score_rel>  (486) 
0.31067478019340511

>  <o3da_align>  (486) 
0.52517961781680267

>  <RMSD>  (486) 
6.6690752472475985e-05

>  <CONVERGED>  (486) 
0

>  <ENERGY>  (486) 
-19.63381721881656

$$$$
c62cfa3b-6e07-484c-865b-17fec0878df0
     RDKit          3D

 16 17  0  0  0  0  0  0  0  0999 V2000
   -6.6041   29.4148    4.9548 C   0  0  0  0  0  0  0  0  0  0  0  0
   -5.8076   28.5151    4.3753 C   0  0  0  0  0  0  0  0  0  0  0  0
   -5.9675   28.2857    3.0316 O   0  0  0  0  0  0  0  0  0  0  0  0
   -4.7720   27.8715    5.0020 N   0  0  0  0  0  0  0  0  0  0  0  0
   -4.3979   26.5127    4.8722 C   0  0  0  0  0  0  0  0  0  0  0  0
   -5.1654   25.5614    4.1899 C   0  0  0  0  0  0  0  0  0  0  0  0
   -4.7337   24.2377    4.0812 C   0  0  0  0  0  0  0  0  0  0  0  0
   -3.5150   23.8532    4.6374 C   0  0  0  0  0  0  0  0  0  0  0  0
   -2.7112   24.7892    5.2953 C   0  0  0  0  0  0  0  0  0  0  0  0
   -1.4308   24.3641    5.8627 C   0  0  0  0  0  0  0  0  0  0  0  0
   -1.2686   23.3120    6.6473 N   0  0  0  0  0  0  0  0  0  0  0  0
    0.0630   23.2632    6.9598 C   0  0  0  0  0  0  0  0  0  0  0  0
    0.7424   24.2813    6.3400 C   0  0  0  0  0  0  0  0  0  0  0  0
   -0.2087   24.9623    5.6288 N   0  0  0  0  0  0  0  0  0  0  0  0
    0.0640   26.0660    4.7401 C   0  0  0  0  0  0  0  0  0  0  0  0
   -3.1685   26.1096    5.4189 C   0  0  0  0  0  0  0  0  0  0  0  0
  1  2  2  3
  2  3  1  0
  2  4  1  0
  4  5  1  0
  5  6  2  0
  6  7  1  0
  7  8  2  0
  8  9  1  0
  9 10  1  0
 10 11  2  0
 11 12  1  0
 12 13  2  0
 13 14  1  0
 14 15  1  0
  9 16  2  0
 16  5  1  0
 14 10  1  0
M  END
>  <Energy>  (487) 
-19.465866553364936

>  <Energy_Delta>  (487) 
0.7396305557082421

>  <std_smi>  (487) 
CC(=O)Nc1cccc(-c2nccn2C)c1

>  <enum_smi>  (487) 
C=C(O)Nc1cccc(-c2nccn2C)c1

>  <enum_code>  (487) 
T

>  <parent_uuid>  (487) 
4ccbde05-ad72-4a71-92e8-f5f6debb7d19

>  <o3da_score>  (487) 
71.299184487365068

>  <o3da_score_rel>  (487) 
0.28385241292186231

>  <o3da_align>  (487) 
0.2774792976953912

>  <RMSD>  (487) 
7.0521136662224138e-05

>  <CONVERGED>  (487) 
0

>  <ENERGY>  (487) 
-19.46586655367625

$$$$
c62cfa3b-6e07-484c-865b-17fec0878df0
     RDKit          3D

 16 17  0  0  0  0  0  0  0  0999 V2000
   -2.2286   30.2562    3.2791 C   0  0  0  0  0  0  0  0  0  0  0  0
   -2.7196   29.3229    4.0969 C   0  0  0  0  0  0  0  0  0  0  0  0
   -1.8389   28.4159    4.6303 O   0  0  0  0  0  0  0  0  0  0  0  0
   -4.0219   29.2730    4.5194 N   0  0  0  0  0  0  0  0  0  0  0  0
   -4.8343   28.1394    4.7447 C   0  0  0  0  0  0  0  0  0  0  0  0
   -6.0685   28.3284    5.3850 C   0  0  0  0  0  0  0  0  0  0  0  0
   -6.8961   27.2472    5.6945 C   0  0  0  0  0  0  0  0  0  0  0  0
   -6.4986   25.9522    5.3688 C   0  0  0  0  0  0  0  0  0  0  0  0
   -5.2763   25.7335    4.7249 C   0  0  0  0  0  0  0  0  0  0  0  0
   -4.8258   24.3845    4.3822 C   0  0  0  0  0  0  0  0  0  0  0  0
   -3.6618   23.8676    4.7369 N   0  0  0  0  0  0  0  0  0  0  0  0
   -3.6295   22.5995    4.2227 C   0  0  0  0  0  0  0  0  0  0  0  0
   -4.7785   22.3324    3.5216 C   0  0  0  0  0  0  0  0  0  0  0  0
   -5.5238   23.4769    3.6120 N   0  0  0  0  0  0  0  0  0  0  0  0
   -6.7867   23.6927    2.9486 C   0  0  0  0  0  0  0  0  0  0  0  0
   -4.4480   26.8293    4.4338 C   0  0  0  0  0  0  0  0  0  0  0  0
  1  2  2  3
  2  3  1  0
  2  4  1  0
  4  5  1  0
  5  6  2  0
  6  7  1  0
  7  8  2  0
  8  9  1  0
  9 10  1  0
 10 11  2  0
 11 12  1  0
 12 13  2  0
 13 14  1  0
 14 15  1  0
  9 16  2  0
 16  5  1  0
 14 10  1  0
M  END
>  <Energy>  (488) 
-19.126592832565741

>  <Energy_Delta>  (488) 
1.078904276507437

>  <std_smi>  (488) 
CC(=O)Nc1cccc(-c2nccn2C)c1

>  <enum_smi>  (488) 
C=C(O)Nc1cccc(-c2nccn2C)c1

>  <enum_code>  (488) 
T

>  <parent_uuid>  (488) 
4ccbde05-ad72-4a71-92e8-f5f6debb7d19

>  <o3da_score>  (488) 
71.63478961870635

>  <o3da_score_rel>  (488) 
0.28518850571177445

>  <o3da_align>  (488) 
0.51885812020820643

>  <RMSD>  (488) 
6.7090157840582113e-05

>  <CONVERGED>  (488) 
0

>  <ENERGY>  (488) 
-19.12659283375903

$$$$
c62cfa3b-6e07-484c-865b-17fec0878df0
     RDKit          3D

 16 17  0  0  0  0  0  0  0  0999 V2000
    0.8922   24.6164    5.9270 C   0  0  0  0  0  0  0  0  0  0  0  0
   -0.3872   24.9302    6.1402 C   0  0  0  0  0  0  0  0  0  0  0  0
   -0.6566   25.9301    7.0404 O   0  0  0  0  0  0  0  0  0  0  0  0
   -1.4493   24.2539    5.6001 N   0  0  0  0  0  0  0  0  0  0  0  0
   -2.6823   24.7682    5.1408 C   0  0  0  0  0  0  0  0  0  0  0  0
   -3.7027   23.8569    4.8293 C   0  0  0  0  0  0  0  0  0  0  0  0
   -4.9662   24.2950    4.4277 C   0  0  0  0  0  0  0  0  0  0  0  0
   -5.2311   25.6595    4.3334 C   0  0  0  0  0  0  0  0  0  0  0  0
   -4.2318   26.5915    4.6320 C   0  0  0  0  0  0  0  0  0  0  0  0
   -4.4837   28.0305    4.5551 C   0  0  0  0  0  0  0  0  0  0  0  0
   -4.2669   28.8855    5.5399 N   0  0  0  0  0  0  0  0  0  0  0  0
   -4.6272   30.1185    5.0672 C   0  0  0  0  0  0  0  0  0  0  0  0
   -5.0529   30.0321    3.7655 C   0  0  0  0  0  0  0  0  0  0  0  0
   -4.9407   28.7068    3.4425 N   0  0  0  0  0  0  0  0  0  0  0  0
   -5.1976   28.1522    2.1355 C   0  0  0  0  0  0  0  0  0  0  0  0
   -2.9707   26.1359    5.0491 C   0  0  0  0  0  0  0  0  0  0  0  0
  1  2  2  3
  2  3  1  0
  2  4  1  0
  4  5  1  0
  5  6  2  0
  6  7  1  0
  7  8  2  0
  8  9  1  0
  9 10  1  0
 10 11  2  0
 11 12  1  0
 12 13  2  0
 13 14  1  0
 14 15  1  0
  9 16  2  0
 16  5  1  0
 14 10  1  0
M  END
>  <Energy>  (489) 
-19.12659283229593

>  <Energy_Delta>  (489) 
1.0789042767772479

>  <std_smi>  (489) 
CC(=O)Nc1cccc(-c2nccn2C)c1

>  <enum_smi>  (489) 
C=C(O)Nc1cccc(-c2nccn2C)c1

>  <enum_code>  (489) 
T

>  <parent_uuid>  (489) 
4ccbde05-ad72-4a71-92e8-f5f6debb7d19

>  <o3da_score>  (489) 
68.512865816101481

>  <o3da_score_rel>  (489) 
0.27275967345094226

>  <o3da_align>  (489) 
0.33673366801167637

>  <RMSD>  (489) 
6.3953978458815058e-05

>  <CONVERGED>  (489) 
0

>  <ENERGY>  (489) 
-19.126592833754248

$$$$
c62cfa3b-6e07-484c-865b-17fec0878df0
     RDKit          3D

 16 17  0  0  0  0  0  0  0  0999 V2000
   -8.0866   22.9223    3.0846 C   0  0  0  0  0  0  0  0  0  0  0  0
   -6.9851   23.6630    2.9505 C   0  0  0  0  0  0  0  0  0  0  0  0
   -7.0039   24.6813    2.0306 O   0  0  0  0  0  0  0  0  0  0  0  0
   -5.7983   23.4185    3.5914 N   0  0  0  0  0  0  0  0  0  0  0  0
   -4.9161   24.3629    4.1672 C   0  0  0  0  0  0  0  0  0  0  0  0
   -3.6463   23.9214    4.5671 C   0  0  0  0  0  0  0  0  0  0  0  0
   -2.7163   24.8050    5.1175 C   0  0  0  0  0  0  0  0  0  0  0  0
   -3.0389   26.1531    5.2622 C   0  0  0  0  0  0  0  0  0  0  0  0
   -4.2887   26.6269    4.8481 C   0  0  0  0  0  0  0  0  0  0  0  0
   -4.6580   28.0358    4.9948 C   0  0  0  0  0  0  0  0  0  0  0  0
   -5.7614   28.4674    5.5818 N   0  0  0  0  0  0  0  0  0  0  0  0
   -5.7296   29.8337    5.5106 C   0  0  0  0  0  0  0  0  0  0  0  0
   -4.6037   30.2571    4.8507 C   0  0  0  0  0  0  0  0  0  0  0  0
   -3.9393   29.1099    4.5096 N   0  0  0  0  0  0  0  0  0  0  0  0
   -2.7343   29.0626    3.7175 C   0  0  0  0  0  0  0  0  0  0  0  0
   -5.2206   25.7228    4.3131 C   0  0  0  0  0  0  0  0  0  0  0  0
  1  2  2  3
  2  3  1  0
  2  4  1  0
  4  5  1  0
  5  6  2  0
  6  7  1  0
  7  8  2  0
  8  9  1  0
  9 10  1  0
 10 11  2  0
 11 12  1  0
 12 13  2  0
 13 14  1  0
 14 15  1  0
  9 16  2  0
 16  5  1  0
 14 10  1  0
M  END
>  <Energy>  (490) 
-18.617310634924586

>  <Energy_Delta>  (490) 
1.5881864741485927

>  <std_smi>  (490) 
CC(=O)Nc1cccc(-c2nccn2C)c1

>  <enum_smi>  (490) 
C=C(O)Nc1cccc(-c2nccn2C)c1

>  <enum_code>  (490) 
T

>  <parent_uuid>  (490) 
4ccbde05-ad72-4a71-92e8-f5f6debb7d19

>  <o3da_score>  (490) 
80.861785374760885

>  <o3da_score_rel>  (490) 
0.32192251646108383

>  <o3da_align>  (490) 
0.37984459935847781

>  <RMSD>  (490) 
7.7712754380781574e-05

>  <CONVERGED>  (490) 
0

>  <ENERGY>  (490) 
-18.617310635118542

$$$$
c62cfa3b-6e07-484c-865b-17fec0878df0
     RDKit          3D

 16 17  0  0  0  0  0  0  0  0999 V2000
    0.4204   24.7655    7.0098 C   0  0  0  0  0  0  0  0  0  0  0  0
   -0.3732   25.0284    5.9707 C   0  0  0  0  0  0  0  0  0  0  0  0
   -0.0315   26.0670    5.1400 O   0  0  0  0  0  0  0  0  0  0  0  0
   -1.4606   24.2799    5.6031 N   0  0  0  0  0  0  0  0  0  0  0  0
   -2.7152   24.7661    5.1630 C   0  0  0  0  0  0  0  0  0  0  0  0
   -3.6082   23.8637    4.5710 C   0  0  0  0  0  0  0  0  0  0  0  0
   -4.8478   24.2924    4.0963 C   0  0  0  0  0  0  0  0  0  0  0  0
   -5.2033   25.6367    4.1973 C   0  0  0  0  0  0  0  0  0  0  0  0
   -4.3241   26.5675    4.7641 C   0  0  0  0  0  0  0  0  0  0  0  0
   -4.7396   27.9709    4.8675 C   0  0  0  0  0  0  0  0  0  0  0  0
   -5.9620   28.3612    5.1941 N   0  0  0  0  0  0  0  0  0  0  0  0
   -5.9496   29.7290    5.1929 C   0  0  0  0  0  0  0  0  0  0  0  0
   -4.7135   30.1990    4.8307 C   0  0  0  0  0  0  0  0  0  0  0  0
   -3.9577   29.0792    4.6032 N   0  0  0  0  0  0  0  0  0  0  0  0
   -2.6050   29.1029    4.1005 C   0  0  0  0  0  0  0  0  0  0  0  0
   -3.0903   26.1151    5.2556 C   0  0  0  0  0  0  0  0  0  0  0  0
  1  2  2  3
  2  3  1  0
  2  4  1  0
  4  5  1  0
  5  6  2  0
  6  7  1  0
  7  8  2  0
  8  9  1  0
  9 10  1  0
 10 11  2  0
 11 12  1  0
 12 13  2  0
 13 14  1  0
 14 15  1  0
  9 16  2  0
 16  5  1  0
 14 10  1  0
M  END
>  <Energy>  (491) 
-16.480666702634238

>  <Energy_Delta>  (491) 
3.7248304064389401

>  <std_smi>  (491) 
CC(=O)Nc1cccc(-c2nccn2C)c1

>  <enum_smi>  (491) 
C=C(O)Nc1cccc(-c2nccn2C)c1

>  <enum_code>  (491) 
T

>  <parent_uuid>  (491) 
4ccbde05-ad72-4a71-92e8-f5f6debb7d19

>  <o3da_score>  (491) 
81.712561841830095

>  <o3da_score_rel>  (491) 
0.32530958119080072

>  <o3da_align>  (491) 
0.33409695130889594

>  <RMSD>  (491) 
0.23246817635915135

>  <CONVERGED>  (491) 
0

>  <ENERGY>  (491) 
-19.986691058148313

$$$$
c62cfa3b-6e07-484c-865b-17fec0878df0
     RDKit          3D

 16 17  0  0  0  0  0  0  0  0999 V2000
   -3.0259   22.6402    4.1936 C   0  0  0  0  0  0  0  0  0  0  0  0
   -3.5515   23.6840    4.8363 C   0  0  0  0  0  0  0  0  0  0  0  0
   -2.8697   24.1924    5.9143 O   0  0  0  0  0  0  0  0  0  0  0  0
   -4.7762   24.2370    4.5675 N   0  0  0  0  0  0  0  0  0  0  0  0
   -5.0937   25.6160    4.5279 C   0  0  0  0  0  0  0  0  0  0  0  0
   -6.4442   25.9877    4.5104 C   0  0  0  0  0  0  0  0  0  0  0  0
   -6.8152   27.3323    4.4969 C   0  0  0  0  0  0  0  0  0  0  0  0
   -5.8351   28.3236    4.5141 C   0  0  0  0  0  0  0  0  0  0  0  0
   -4.4770   27.9848    4.5535 C   0  0  0  0  0  0  0  0  0  0  0  0
   -3.4739   29.0557    4.5548 C   0  0  0  0  0  0  0  0  0  0  0  0
   -3.5652   30.1593    3.8289 N   0  0  0  0  0  0  0  0  0  0  0  0
   -2.4440   30.8965    4.0949 C   0  0  0  0  0  0  0  0  0  0  0  0
   -1.6583   30.2608    5.0214 C   0  0  0  0  0  0  0  0  0  0  0  0
   -2.3284   29.1054    5.3262 N   0  0  0  0  0  0  0  0  0  0  0  0
   -1.9094   28.1693    6.3416 C   0  0  0  0  0  0  0  0  0  0  0  0
   -4.1215   26.6277    4.5452 C   0  0  0  0  0  0  0  0  0  0  0  0
  1  2  2  3
  2  3  1  0
  2  4  1  0
  4  5  1  0
  5  6  2  0
  6  7  1  0
  7  8  2  0
  8  9  1  0
  9 10  1  0
 10 11  2  0
 11 12  1  0
 12 13  2  0
 13 14  1  0
 14 15  1  0
  9 16  2  0
 16  5  1  0
 14 10  1  0
M  END
>  <Energy>  (492) 
-16.480666702124562

>  <Energy_Delta>  (492) 
3.724830406948616

>  <std_smi>  (492) 
CC(=O)Nc1cccc(-c2nccn2C)c1

>  <enum_smi>  (492) 
C=C(O)Nc1cccc(-c2nccn2C)c1

>  <enum_code>  (492) 
T

>  <parent_uuid>  (492) 
4ccbde05-ad72-4a71-92e8-f5f6debb7d19

>  <o3da_score>  (492) 
71.834422125525549

>  <o3da_score_rel>  (492) 
0.28598327172720217

>  <o3da_align>  (492) 
0.42362557890649455

>  <RMSD>  (492) 
0.23248825514846669

>  <CONVERGED>  (492) 
0

>  <ENERGY>  (492) 
-19.986691058153852

$$$$
c62cfa3b-6e07-484c-865b-17fec0878df0
     RDKit          3D

 16 17  0  0  0  0  0  0  0  0999 V2000
   -5.8145   28.4648    3.0544 C   0  0  0  0  0  0  0  0  0  0  0  0
   -5.6788   28.5567    4.3786 C   0  0  0  0  0  0  0  0  0  0  0  0
   -6.2745   29.6272    4.9988 O   0  0  0  0  0  0  0  0  0  0  0  0
   -4.9835   27.7383    5.2263 N   0  0  0  0  0  0  0  0  0  0  0  0
   -4.5035   26.4347    4.9924 C   0  0  0  0  0  0  0  0  0  0  0  0
   -5.2278   25.4901    4.2550 C   0  0  0  0  0  0  0  0  0  0  0  0
   -4.7313   24.2008    4.0529 C   0  0  0  0  0  0  0  0  0  0  0  0
   -3.4913   23.8425    4.5778 C   0  0  0  0  0  0  0  0  0  0  0  0
   -2.7355   24.7713    5.2997 C   0  0  0  0  0  0  0  0  0  0  0  0
   -1.4315   24.3772    5.8336 C   0  0  0  0  0  0  0  0  0  0  0  0
   -1.2127   23.3042    6.5745 N   0  0  0  0  0  0  0  0  0  0  0  0
    0.1251   23.3006    6.8642 C   0  0  0  0  0  0  0  0  0  0  0  0
    0.7506   24.3700    6.2741 C   0  0  0  0  0  0  0  0  0  0  0  0
   -0.2403   25.0361    5.6049 N   0  0  0  0  0  0  0  0  0  0  0  0
   -0.0329   26.1852    4.7569 C   0  0  0  0  0  0  0  0  0  0  0  0
   -3.2583   26.0554    5.5175 C   0  0  0  0  0  0  0  0  0  0  0  0
  1  2  2  3
  2  3  1  0
  2  4  1  0
  4  5  1  0
  5  6  2  0
  6  7  1  0
  7  8  2  0
  8  9  1  0
  9 10  1  0
 10 11  2  0
 11 12  1  0
 12 13  2  0
 13 14  1  0
 14 15  1  0
  9 16  2  0
 16  5  1  0
 14 10  1  0
M  END
>  <Energy>  (493) 
-16.345480121097221

>  <Energy_Delta>  (493) 
3.8600169879759569

>  <std_smi>  (493) 
CC(=O)Nc1cccc(-c2nccn2C)c1

>  <enum_smi>  (493) 
C=C(O)Nc1cccc(-c2nccn2C)c1

>  <enum_code>  (493) 
T

>  <parent_uuid>  (493) 
4ccbde05-ad72-4a71-92e8-f5f6debb7d19

>  <o3da_score>  (493) 
71.130574861787153

>  <o3da_score_rel>  (493) 
0.28318115350415296

>  <o3da_align>  (493) 
0.28487150735001865

>  <RMSD>  (493) 
0.15048953821199926

>  <CONVERGED>  (493) 
0

>  <ENERGY>  (493) 
-14.523217363891371

$$$$
c62cfa3b-6e07-484c-865b-17fec0878df0
     RDKit          3D

 16 17  0  0  0  0  0  0  0  0999 V2000
   -2.5277   29.1054    4.5901 C   0  0  0  0  0  0  0  0  0  0  0  0
   -3.7794   29.0066    5.0417 C   0  0  0  0  0  0  0  0  0  0  0  0
   -4.3611   30.1481    5.5361 O   0  0  0  0  0  0  0  0  0  0  0  0
   -4.6032   27.9139    5.0525 N   0  0  0  0  0  0  0  0  0  0  0  0
   -4.2631   26.5539    4.9073 C   0  0  0  0  0  0  0  0  0  0  0  0
   -3.0885   26.0101    5.4396 C   0  0  0  0  0  0  0  0  0  0  0  0
   -2.7960   24.6517    5.2983 C   0  0  0  0  0  0  0  0  0  0  0  0
   -3.6765   23.8149    4.6137 C   0  0  0  0  0  0  0  0  0  0  0  0
   -4.8525   24.3316    4.0604 C   0  0  0  0  0  0  0  0  0  0  0  0
   -5.8075   23.4859    3.3404 C   0  0  0  0  0  0  0  0  0  0  0  0
   -7.1143   23.4888    3.5475 N   0  0  0  0  0  0  0  0  0  0  0  0
   -7.6458   22.5666    2.6873 C   0  0  0  0  0  0  0  0  0  0  0  0
   -6.6622   22.0059    1.9128 C   0  0  0  0  0  0  0  0  0  0  0  0
   -5.5024   22.6112    2.3166 N   0  0  0  0  0  0  0  0  0  0  0  0
   -4.2136   22.4035    1.7015 C   0  0  0  0  0  0  0  0  0  0  0  0
   -5.1428   25.6943    4.2325 C   0  0  0  0  0  0  0  0  0  0  0  0
  1  2  2  3
  2  3  1  0
  2  4  1  0
  4  5  1  0
  5  6  2  0
  6  7  1  0
  7  8  2  0
  8  9  1  0
  9 10  1  0
 10 11  2  0
 11 12  1  0
 12 13  2  0
 13 14  1  0
 14 15  1  0
  9 16  2  0
 16  5  1  0
 14 10  1  0
M  END
>  <Energy>  (494) 
-15.994971315842003

>  <Energy_Delta>  (494) 
4.2105257932311755

>  <std_smi>  (494) 
CC(=O)Nc1cccc(-c2nccn2C)c1

>  <enum_smi>  (494) 
C=C(O)Nc1cccc(-c2nccn2C)c1

>  <enum_code>  (494) 
T

>  <parent_uuid>  (494) 
4ccbde05-ad72-4a71-92e8-f5f6debb7d19

>  <o3da_score>  (494) 
71.118010330183694

>  <o3da_score_rel>  (494) 
0.28313113227826492

>  <o3da_align>  (494) 
0.26610635070549993

>  <RMSD>  (494) 
0.13545657263109162

>  <CONVERGED>  (494) 
0

>  <ENERGY>  (494) 
-15.059169371615303

$$$$
c62cfa3b-6e07-484c-865b-17fec0878df0
     RDKit          3D

 16 17  0  0  0  0  0  0  0  0999 V2000
   -7.0552   27.8950    5.1349 C   0  0  0  0  0  0  0  0  0  0  0  0
   -5.9185   28.4681    4.7353 C   0  0  0  0  0  0  0  0  0  0  0  0
   -5.9726   29.7926    4.3774 O   0  0  0  0  0  0  0  0  0  0  0  0
   -4.6613   27.9269    4.6629 N   0  0  0  0  0  0  0  0  0  0  0  0
   -4.3065   26.5602    4.6570 C   0  0  0  0  0  0  0  0  0  0  0  0
   -5.0697   25.5910    3.9937 C   0  0  0  0  0  0  0  0  0  0  0  0
   -4.6917   24.2469    4.0028 C   0  0  0  0  0  0  0  0  0  0  0  0
   -3.5257   23.8567    4.6577 C   0  0  0  0  0  0  0  0  0  0  0  0
   -2.7180   24.8080    5.2884 C   0  0  0  0  0  0  0  0  0  0  0  0
   -1.4891   24.3764    5.9557 C   0  0  0  0  0  0  0  0  0  0  0  0
   -1.4173   23.3993    6.8437 N   0  0  0  0  0  0  0  0  0  0  0  0
   -0.1046   23.3158    7.2221 C   0  0  0  0  0  0  0  0  0  0  0  0
    0.6543   24.2334    6.5404 C   0  0  0  0  0  0  0  0  0  0  0  0
   -0.2280   24.8873    5.7234 N   0  0  0  0  0  0  0  0  0  0  0  0
    0.1387   25.8837    4.7464 C   0  0  0  0  0  0  0  0  0  0  0  0
   -3.1212   26.1527    5.2901 C   0  0  0  0  0  0  0  0  0  0  0  0
  1  2  2  3
  2  3  1  0
  2  4  1  0
  4  5  1  0
  5  6  2  0
  6  7  1  0
  7  8  2  0
  8  9  1  0
  9 10  1  0
 10 11  2  0
 11 12  1  0
 12 13  2  0
 13 14  1  0
 14 15  1  0
  9 16  2  0
 16  5  1  0
 14 10  1  0
M  END
>  <Energy>  (495) 
-15.902422854545501

>  <Energy_Delta>  (495) 
4.3030742545276777

>  <std_smi>  (495) 
CC(=O)Nc1cccc(-c2nccn2C)c1

>  <enum_smi>  (495) 
C=C(O)Nc1cccc(-c2nccn2C)c1

>  <enum_code>  (495) 
T

>  <parent_uuid>  (495) 
4ccbde05-ad72-4a71-92e8-f5f6debb7d19

>  <o3da_score>  (495) 
72.427930203901539

>  <o3da_score_rel>  (495) 
0.28834611362149476

>  <o3da_align>  (495) 
0.2195439884006912

>  <RMSD>  (495) 
0.15003878619651231

>  <CONVERGED>  (495) 
0

>  <ENERGY>  (495) 
-14.072375066030933

$$$$
c62cfa3b-6e07-484c-865b-17fec0878df0
     RDKit          3D

 16 17  0  0  0  0  0  0  0  0999 V2000
   -1.7917   22.1880    6.5282 C   0  0  0  0  0  0  0  0  0  0  0  0
   -1.0136   23.1212    5.9770 C   0  0  0  0  0  0  0  0  0  0  0  0
    0.3393   22.8870    5.9654 O   0  0  0  0  0  0  0  0  0  0  0  0
   -1.3698   24.3306    5.4394 N   0  0  0  0  0  0  0  0  0  0  0  0
   -2.6519   24.7470    5.0193 C   0  0  0  0  0  0  0  0  0  0  0  0
   -3.5503   23.8801    4.3842 C   0  0  0  0  0  0  0  0  0  0  0  0
   -4.8108   24.3217    3.9770 C   0  0  0  0  0  0  0  0  0  0  0  0
   -5.1812   25.6495    4.1783 C   0  0  0  0  0  0  0  0  0  0  0  0
   -4.2879   26.5502    4.7666 C   0  0  0  0  0  0  0  0  0  0  0  0
   -4.6933   27.9441    4.9525 C   0  0  0  0  0  0  0  0  0  0  0  0
   -5.8157   28.3311    5.5346 N   0  0  0  0  0  0  0  0  0  0  0  0
   -5.8133   29.6996    5.5089 C   0  0  0  0  0  0  0  0  0  0  0  0
   -4.6891   30.1692    4.8778 C   0  0  0  0  0  0  0  0  0  0  0  0
   -3.9947   29.0489    4.5089 N   0  0  0  0  0  0  0  0  0  0  0  0
   -2.7814   29.0529    3.7279 C   0  0  0  0  0  0  0  0  0  0  0  0
   -3.0322   26.0877    5.1909 C   0  0  0  0  0  0  0  0  0  0  0  0
  1  2  2  3
  2  3  1  0
  2  4  1  0
  4  5  1  0
  5  6  2  0
  6  7  1  0
  7  8  2  0
  8  9  1  0
  9 10  1  0
 10 11  2  0
 11 12  1  0
 12 13  2  0
 13 14  1  0
 14 15  1  0
  9 16  2  0
 16  5  1  0
 14 10  1  0
M  END
>  <Energy>  (496) 
-15.902422853591863

>  <Energy_Delta>  (496) 
4.3030742554813148

>  <std_smi>  (496) 
CC(=O)Nc1cccc(-c2nccn2C)c1

>  <enum_smi>  (496) 
C=C(O)Nc1cccc(-c2nccn2C)c1

>  <enum_code>  (496) 
T

>  <parent_uuid>  (496) 
4ccbde05-ad72-4a71-92e8-f5f6debb7d19

>  <o3da_score>  (496) 
73.656796775036455

>  <o3da_score_rel>  (496) 
0.29323840999043116

>  <o3da_align>  (496) 
0.35820928716520711

>  <RMSD>  (496) 
0.14999143965652476

>  <CONVERGED>  (496) 
0

>  <ENERGY>  (496) 
-14.072375066059738

$$$$
c62cfa3b-6e07-484c-865b-17fec0878df0
     RDKit          3D

 16 17  0  0  0  0  0  0  0  0999 V2000
   -1.2999   31.1865    2.8528 C   0  0  0  0  0  0  0  0  0  0  0  0
   -1.2306   30.2332    1.9219 C   0  0  0  0  0  0  0  0  0  0  0  0
   -0.6868   30.5759    0.7085 O   0  0  0  0  0  0  0  0  0  0  0  0
   -1.5978   28.9161    2.0105 N   0  0  0  0  0  0  0  0  0  0  0  0
   -2.4531   28.3141    2.9589 C   0  0  0  0  0  0  0  0  0  0  0  0
   -3.5871   28.9590    3.4664 C   0  0  0  0  0  0  0  0  0  0  0  0
   -4.4189   28.3279    4.3939 C   0  0  0  0  0  0  0  0  0  0  0  0
   -4.1428   27.0253    4.8076 C   0  0  0  0  0  0  0  0  0  0  0  0
   -3.0461   26.3362    4.2796 C   0  0  0  0  0  0  0  0  0  0  0  0
   -2.7279   24.9620    4.6761 C   0  0  0  0  0  0  0  0  0  0  0  0
   -1.5176   24.5401    5.0048 N   0  0  0  0  0  0  0  0  0  0  0  0
   -1.6386   23.2123    5.3125 C   0  0  0  0  0  0  0  0  0  0  0  0
   -2.9334   22.7935    5.1409 C   0  0  0  0  0  0  0  0  0  0  0  0
   -3.6132   23.9028    4.7139 N   0  0  0  0  0  0  0  0  0  0  0  0
   -4.9975   23.9063    4.3067 C   0  0  0  0  0  0  0  0  0  0  0  0
   -2.2062   26.9945    3.3669 C   0  0  0  0  0  0  0  0  0  0  0  0
  1  2  2  3
  2  3  1  0
  2  4  1  0
  4  5  1  0
  5  6  2  0
  6  7  1  0
  7  8  2  0
  8  9  1  0
  9 10  1  0
 10 11  2  0
 11 12  1  0
 12 13  2  0
 13 14  1  0
 14 15  1  0
  9 16  2  0
 16  5  1  0
 14 10  1  0
M  END
>  <Energy>  (497) 
-15.711380621260902

>  <Energy_Delta>  (497) 
4.4941164878122759

>  <std_smi>  (497) 
CC(=O)Nc1cccc(-c2nccn2C)c1

>  <enum_smi>  (497) 
C=C(O)Nc1cccc(-c2nccn2C)c1

>  <enum_code>  (497) 
T

>  <parent_uuid>  (497) 
4ccbde05-ad72-4a71-92e8-f5f6debb7d19

>  <o3da_score>  (497) 
92.035160656599004

>  <o3da_score_rel>  (497) 
0.36640534690346122

>  <o3da_align>  (497) 
0.56396198167808631

>  <RMSD>  (497) 
0.13882804695565534

>  <CONVERGED>  (497) 
0

>  <ENERGY>  (497) 
-14.818572123111537

$$$$
c62cfa3b-6e07-484c-865b-17fec0878df0
     RDKit          3D

 16 17  0  0  0  0  0  0  0  0999 V2000
    0.1245   25.9862    5.0128 C   0  0  0  0  0  0  0  0  0  0  0  0
   -0.2902   24.9741    5.7772 C   0  0  0  0  0  0  0  0  0  0  0  0
    0.6078   24.4536    6.6754 O   0  0  0  0  0  0  0  0  0  0  0  0
   -1.5028   24.3388    5.7704 N   0  0  0  0  0  0  0  0  0  0  0  0
   -2.7197   24.7942    5.2224 C   0  0  0  0  0  0  0  0  0  0  0  0
   -3.5783   23.8809    4.5962 C   0  0  0  0  0  0  0  0  0  0  0  0
   -4.7981   24.2968    4.0604 C   0  0  0  0  0  0  0  0  0  0  0  0
   -5.1734   25.6366    4.1431 C   0  0  0  0  0  0  0  0  0  0  0  0
   -4.3339   26.5742    4.7552 C   0  0  0  0  0  0  0  0  0  0  0  0
   -4.7665   27.9721    4.8415 C   0  0  0  0  0  0  0  0  0  0  0  0
   -5.9893   28.3567    5.1709 N   0  0  0  0  0  0  0  0  0  0  0  0
   -5.9880   29.7246    5.1446 C   0  0  0  0  0  0  0  0  0  0  0  0
   -4.7587   30.1985    4.7636 C   0  0  0  0  0  0  0  0  0  0  0  0
   -3.9961   29.0810    4.5505 N   0  0  0  0  0  0  0  0  0  0  0  0
   -2.6482   29.1000    4.0359 C   0  0  0  0  0  0  0  0  0  0  0  0
   -3.1207   26.1360    5.3071 C   0  0  0  0  0  0  0  0  0  0  0  0
  1  2  2  3
  2  3  1  0
  2  4  1  0
  4  5  1  0
  5  6  2  0
  6  7  1  0
  7  8  2  0
  8  9  1  0
  9 10  1  0
 10 11  2  0
 11 12  1  0
 12 13  2  0
 13 14  1  0
 14 15  1  0
  9 16  2  0
 16  5  1  0
 14 10  1  0
M  END
>  <Energy>  (498) 
-15.122539075139615

>  <Energy_Delta>  (498) 
5.0829580339335632

>  <std_smi>  (498) 
CC(=O)Nc1cccc(-c2nccn2C)c1

>  <enum_smi>  (498) 
C=C(O)Nc1cccc(-c2nccn2C)c1

>  <enum_code>  (498) 
T

>  <parent_uuid>  (498) 
4ccbde05-ad72-4a71-92e8-f5f6debb7d19

>  <o3da_score>  (498) 
81.420814662824242

>  <o3da_score_rel>  (498) 
0.32414809328151573

>  <o3da_align>  (498) 
0.34245520159228943

>  <RMSD>  (498) 
6.8652960010932938e-05

>  <CONVERGED>  (498) 
0

>  <ENERGY>  (498) 
-15.122539076737308

$$$$
c62cfa3b-6e07-484c-865b-17fec0878df0
     RDKit          3D

 16 17  0  0  0  0  0  0  0  0999 V2000
   -1.0331   30.8284    0.3843 C   0  0  0  0  0  0  0  0  0  0  0  0
   -1.2592   30.3195    1.5966 C   0  0  0  0  0  0  0  0  0  0  0  0
   -0.9816   31.1065    2.6862 O   0  0  0  0  0  0  0  0  0  0  0  0
   -1.6565   29.0301    1.8398 N   0  0  0  0  0  0  0  0  0  0  0  0
   -2.6038   28.5861    2.7929 C   0  0  0  0  0  0  0  0  0  0  0  0
   -3.4210   29.4504    3.5312 C   0  0  0  0  0  0  0  0  0  0  0  0
   -4.3256   28.9517    4.4711 C   0  0  0  0  0  0  0  0  0  0  0  0
   -4.4090   27.5794    4.6998 C   0  0  0  0  0  0  0  0  0  0  0  0
   -3.5814   26.6947    4.0016 C   0  0  0  0  0  0  0  0  0  0  0  0
   -3.6800   25.2585    4.2660 C   0  0  0  0  0  0  0  0  0  0  0  0
   -4.8106   24.5726    4.2796 N   0  0  0  0  0  0  0  0  0  0  0  0
   -4.4739   23.2760    4.5598 C   0  0  0  0  0  0  0  0  0  0  0  0
   -3.1203   23.1586    4.7501 C   0  0  0  0  0  0  0  0  0  0  0  0
   -2.6266   24.4244    4.5832 N   0  0  0  0  0  0  0  0  0  0  0  0
   -1.2481   24.8013    4.7835 C   0  0  0  0  0  0  0  0  0  0  0  0
   -2.6951   27.2069    3.0426 C   0  0  0  0  0  0  0  0  0  0  0  0
  1  2  2  3
  2  3  1  0
  2  4  1  0
  4  5  1  0
  5  6  2  0
  6  7  1  0
  7  8  2  0
  8  9  1  0
  9 10  1  0
 10 11  2  0
 11 12  1  0
 12 13  2  0
 13 14  1  0
 14 15  1  0
  9 16  2  0
 16  5  1  0
 14 10  1  0
M  END
>  <Energy>  (499) 
-15.095077857700582

>  <Energy_Delta>  (499) 
5.1104192513725959

>  <std_smi>  (499) 
CC(=O)Nc1cccc(-c2nccn2C)c1

>  <enum_smi>  (499) 
C=C(O)Nc1cccc(-c2nccn2C)c1

>  <enum_code>  (499) 
T

>  <parent_uuid>  (499) 
4ccbde05-ad72-4a71-92e8-f5f6debb7d19

>  <o3da_score>  (499) 
75.128476876039073

>  <o3da_score_rel>  (499) 
0.29909738230157601

>  <o3da_align>  (499) 
0.44680224232941185

>  <RMSD>  (499) 
0.16952899364592339

>  <CONVERGED>  (499) 
0

>  <ENERGY>  (499) 
-19.465866553734639

$$$$
c62cfa3b-6e07-484c-865b-17fec0878df0
     RDKit          3D

 16 17  0  0  0  0  0  0  0  0999 V2000
   -4.4773   30.7485    3.1259 C   0  0  0  0  0  0  0  0  0  0  0  0
   -3.4724   30.1892    3.8023 C   0  0  0  0  0  0  0  0  0  0  0  0
   -2.3423   30.9467    3.9895 O   0  0  0  0  0  0  0  0  0  0  0  0
   -3.3861   28.9256    4.3205 N   0  0  0  0  0  0  0  0  0  0  0  0
   -4.4232   28.0051    4.5726 C   0  0  0  0  0  0  0  0  0  0  0  0
   -5.6846   28.3990    5.0336 C   0  0  0  0  0  0  0  0  0  0  0  0
   -6.6809   27.4564    5.2972 C   0  0  0  0  0  0  0  0  0  0  0  0
   -6.4298   26.0995    5.0968 C   0  0  0  0  0  0  0  0  0  0  0  0
   -5.1828   25.6763    4.6256 C   0  0  0  0  0  0  0  0  0  0  0  0
   -4.8757   24.2606    4.4088 C   0  0  0  0  0  0  0  0  0  0  0  0
   -3.7769   23.6592    4.8351 N   0  0  0  0  0  0  0  0  0  0  0  0
   -3.8698   22.3532    4.4372 C   0  0  0  0  0  0  0  0  0  0  0  0
   -5.0248   22.1459    3.7268 C   0  0  0  0  0  0  0  0  0  0  0  0
   -5.6458   23.3657    3.6929 N   0  0  0  0  0  0  0  0  0  0  0  0
   -6.8558   23.6480    2.9591 C   0  0  0  0  0  0  0  0  0  0  0  0
   -4.1849   26.6349    4.3887 C   0  0  0  0  0  0  0  0  0  0  0  0
  1  2  2  3
  2  3  1  0
  2  4  1  0
  4  5  1  0
  5  6  2  0
  6  7  1  0
  7  8  2  0
  8  9  1  0
  9 10  1  0
 10 11  2  0
 11 12  1  0
 12 13  2  0
 13 14  1  0
 14 15  1  0
  9 16  2  0
 16  5  1  0
 14 10  1  0
M  END
>  <Energy>  (500) 
-15.059169371022524

>  <Energy_Delta>  (500) 
5.1463277380506547

>  <std_smi>  (500) 
CC(=O)Nc1cccc(-c2nccn2C)c1

>  <enum_smi>  (500) 
C=C(O)Nc1cccc(-c2nccn2C)c1

>  <enum_code>  (500) 
T

>  <parent_uuid>  (500) 
4ccbde05-ad72-4a71-92e8-f5f6debb7d19

>  <o3da_score>  (500) 
73.665940175526771

>  <o3da_score_rel>  (500) 
0.29327481119628152

>  <o3da_align>  (500) 
0.47196861912198096

>  <RMSD>  (500) 
5.6981541619452117e-05

>  <CONVERGED>  (500) 
0

>  <ENERGY>  (500) 
-15.059169371639289

$$$$
c62cfa3b-6e07-484c-865b-17fec0878df0
     RDKit          3D

 16 17  0  0  0  0  0  0  0  0999 V2000
   -2.3612   31.5481    1.4736 C   0  0  0  0  0  0  0  0  0  0  0  0
   -1.6232   30.4560    1.2669 C   0  0  0  0  0  0  0  0  0  0  0  0
   -0.4836   30.5990    0.5144 O   0  0  0  0  0  0  0  0  0  0  0  0
   -1.8584   29.1690    1.6742 N   0  0  0  0  0  0  0  0  0  0  0  0
   -2.7284   28.7253    2.6938 C   0  0  0  0  0  0  0  0  0  0  0  0
   -2.9201   29.4382    3.8831 C   0  0  0  0  0  0  0  0  0  0  0  0
   -3.7785   28.9624    4.8767 C   0  0  0  0  0  0  0  0  0  0  0  0
   -4.4390   27.7463    4.7060 C   0  0  0  0  0  0  0  0  0  0  0  0
   -4.2281   26.9863    3.5510 C   0  0  0  0  0  0  0  0  0  0  0  0
   -4.8908   25.6970    3.3376 C   0  0  0  0  0  0  0  0  0  0  0  0
   -5.4887   25.3411    2.2121 N   0  0  0  0  0  0  0  0  0  0  0  0
   -5.9812   24.0807    2.4150 C   0  0  0  0  0  0  0  0  0  0  0  0
   -5.6572   23.6324    3.6702 C   0  0  0  0  0  0  0  0  0  0  0  0
   -4.9449   24.6534    4.2404 N   0  0  0  0  0  0  0  0  0  0  0  0
   -4.3082   24.5828    5.5334 C   0  0  0  0  0  0  0  0  0  0  0  0
   -3.3810   27.4913    2.5514 C   0  0  0  0  0  0  0  0  0  0  0  0
  1  2  2  3
  2  3  1  0
  2  4  1  0
  4  5  1  0
  5  6  2  0
  6  7  1  0
  7  8  2  0
  8  9  1  0
  9 10  1  0
 10 11  2  0
 11 12  1  0
 12 13  2  0
 13 14  1  0
 14 15  1  0
  9 16  2  0
 16  5  1  0
 14 10  1  0
M  END
>  <Energy>  (501) 
-14.818572122889545

>  <Energy_Delta>  (501) 
5.386924986183633

>  <std_smi>  (501) 
CC(=O)Nc1cccc(-c2nccn2C)c1

>  <enum_smi>  (501) 
C=C(O)Nc1cccc(-c2nccn2C)c1

>  <enum_code>  (501) 
T

>  <parent_uuid>  (501) 
4ccbde05-ad72-4a71-92e8-f5f6debb7d19

>  <o3da_score>  (501) 
69.372724776833962

>  <o3da_score_rel>  (501) 
0.27618289690758152

>  <o3da_align>  (501) 
0.43567302886167575

>  <RMSD>  (501) 
5.60886991597466e-05

>  <CONVERGED>  (501) 
0

>  <ENERGY>  (501) 
-14.818572123112091

$$$$
c62cfa3b-6e07-484c-865b-17fec0878df0
     RDKit          3D

 16 17  0  0  0  0  0  0  0  0999 V2000
   -1.3222   31.1274    2.7929 C   0  0  0  0  0  0  0  0  0  0  0  0
   -1.2691   30.1888    1.8460 C   0  0  0  0  0  0  0  0  0  0  0  0
   -0.7108   30.5413    0.6420 O   0  0  0  0  0  0  0  0  0  0  0  0
   -1.6672   28.8816    1.9138 N   0  0  0  0  0  0  0  0  0  0  0  0
   -2.5121   28.2680    2.8594 C   0  0  0  0  0  0  0  0  0  0  0  0
   -3.6391   28.9106    3.3861 C   0  0  0  0  0  0  0  0  0  0  0  0
   -4.4656   28.2700    4.3115 C   0  0  0  0  0  0  0  0  0  0  0  0
   -4.1658   26.9764    4.7335 C   0  0  0  0  0  0  0  0  0  0  0  0
   -3.0347   26.3178    4.2416 C   0  0  0  0  0  0  0  0  0  0  0  0
   -2.7329   24.9635    4.7057 C   0  0  0  0  0  0  0  0  0  0  0  0
   -3.5872   23.9543    4.6947 N   0  0  0  0  0  0  0  0  0  0  0  0
   -2.9175   22.8753    5.2053 C   0  0  0  0  0  0  0  0  0  0  0  0
   -1.6394   23.2241    5.5628 C   0  0  0  0  0  0  0  0  0  0  0  0
   -1.5373   24.5555    5.2621 N   0  0  0  0  0  0  0  0  0  0  0  0
   -0.3895   25.3801    5.5536 C   0  0  0  0  0  0  0  0  0  0  0  0
   -2.2275   26.9636    3.2924 C   0  0  0  0  0  0  0  0  0  0  0  0
  1  2  2  3
  2  3  1  0
  2  4  1  0
  4  5  1  0
  5  6  2  0
  6  7  1  0
  7  8  2  0
  8  9  1  0
  9 10  1  0
 10 11  2  0
 11 12  1  0
 12 13  2  0
 13 14  1  0
 14 15  1  0
  9 16  2  0
 16  5  1  0
 14 10  1  0
M  END
>  <Energy>  (502) 
-14.52321736369082

>  <Energy_Delta>  (502) 
5.6822797453823579

>  <std_smi>  (502) 
CC(=O)Nc1cccc(-c2nccn2C)c1

>  <enum_smi>  (502) 
C=C(O)Nc1cccc(-c2nccn2C)c1

>  <enum_code>  (502) 
T

>  <parent_uuid>  (502) 
4ccbde05-ad72-4a71-92e8-f5f6debb7d19

>  <o3da_score>  (502) 
85.247117573255252

>  <o3da_score_rel>  (502) 
0.3393811611139852

>  <o3da_align>  (502) 
0.51773241481897669

>  <RMSD>  (502) 
5.5876485433040084e-05

>  <CONVERGED>  (502) 
0

>  <ENERGY>  (502) 
-14.523217363897391

$$$$
35dbf545-bba2-4118-adc5-98b2d26f3053
     RDKit          3D

 16 17  0  0  0  0  0  0  0  0999 V2000
   -2.9000   28.5101    3.1185 C   0  0  0  0  0  0  0  0  0  0  0  0
   -3.7949   28.7950    4.2804 C   0  0  0  0  0  0  0  0  0  0  0  0
   -4.0235   30.1001    4.4828 O   0  0  0  0  0  0  0  0  0  0  0  0
   -4.3633   27.9726    5.0961 N   0  0  0  0  0  0  0  0  0  0  0  0
   -4.1412   26.6011    4.9158 C   0  0  0  0  0  0  0  0  0  0  0  0
   -3.0752   25.9687    5.5595 C   0  0  0  0  0  0  0  0  0  0  0  0
   -2.8536   24.6039    5.3801 C   0  0  0  0  0  0  0  0  0  0  0  0
   -3.7161   23.8615    4.5725 C   0  0  0  0  0  0  0  0  0  0  0  0
   -4.8164   24.4704    3.9547 C   0  0  0  0  0  0  0  0  0  0  0  0
   -5.7102   23.6623    3.1234 C   0  0  0  0  0  0  0  0  0  0  0  0
   -5.3058   22.8190    2.1880 N   0  0  0  0  0  0  0  0  0  0  0  0
   -6.4363   22.2712    1.6450 C   0  0  0  0  0  0  0  0  0  0  0  0
   -7.5568   22.7581    2.2689 C   0  0  0  0  0  0  0  0  0  0  0  0
   -7.0870   23.6236    3.2201 N   0  0  0  0  0  0  0  0  0  0  0  0
   -7.9124   24.3041    4.1889 C   0  0  0  0  0  0  0  0  0  0  0  0
   -5.0136   25.8467    4.1253 C   0  0  0  0  0  0  0  0  0  0  0  0
  1  2  1  0
  2  3  1  0
  2  4  2  3
  4  5  1  0
  5  6  2  0
  6  7  1  0
  7  8  2  0
  8  9  1  0
  9 10  1  0
 10 11  2  0
 11 12  1  0
 12 13  2  0
 13 14  1  0
 14 15  1  0
  9 16  2  0
 16  5  1  0
 14 10  1  0
M  END
>  <Energy>  (503) 
-5.3850765237436526

>  <Energy_Delta>  (503) 
0

>  <std_smi>  (503) 
CC(=O)Nc1cccc(-c2nccn2C)c1

>  <enum_smi>  (503) 
CC(O)=Nc1cccc(-c2nccn2C)c1

>  <enum_code>  (503) 
T

>  <parent_uuid>  (503) 
4ccbde05-ad72-4a71-92e8-f5f6debb7d19

>  <o3da_score>  (503) 
75.403171393755471

>  <o3da_score_rel>  (503) 
0.30019098108858633

>  <o3da_align>  (503) 
0.42218945821362597

>  <RMSD>  (503) 
6.0556441751051118e-05

>  <CONVERGED>  (503) 
0

>  <ENERGY>  (503) 
-5.3850765241298433

$$$$
35dbf545-bba2-4118-adc5-98b2d26f3053
     RDKit          3D

 16 17  0  0  0  0  0  0  0  0999 V2000
   -3.0042   28.4637    0.8229 C   0  0  0  0  0  0  0  0  0  0  0  0
   -2.0040   29.1609    1.6863 C   0  0  0  0  0  0  0  0  0  0  0  0
   -1.1771   29.9729    1.0128 O   0  0  0  0  0  0  0  0  0  0  0  0
   -1.8339   29.0885    2.9633 N   0  0  0  0  0  0  0  0  0  0  0  0
   -2.6848   28.2527    3.6984 C   0  0  0  0  0  0  0  0  0  0  0  0
   -3.8767   28.7509    4.2294 C   0  0  0  0  0  0  0  0  0  0  0  0
   -4.7239   27.9194    4.9607 C   0  0  0  0  0  0  0  0  0  0  0  0
   -4.3668   26.5889    5.1838 C   0  0  0  0  0  0  0  0  0  0  0  0
   -3.1541   26.0841    4.6966 C   0  0  0  0  0  0  0  0  0  0  0  0
   -2.8019   24.6874    4.9577 C   0  0  0  0  0  0  0  0  0  0  0  0
   -3.6167   23.6617    4.7736 N   0  0  0  0  0  0  0  0  0  0  0  0
   -2.9146   22.5410    5.1256 C   0  0  0  0  0  0  0  0  0  0  0  0
   -1.6573   22.8753    5.5609 C   0  0  0  0  0  0  0  0  0  0  0  0
   -1.6011   24.2404    5.4720 N   0  0  0  0  0  0  0  0  0  0  0  0
   -0.4897   25.0460    5.9177 C   0  0  0  0  0  0  0  0  0  0  0  0
   -2.3236   26.9244    3.9441 C   0  0  0  0  0  0  0  0  0  0  0  0
  1  2  1  0
  2  3  1  0
  2  4  2  3
  4  5  1  0
  5  6  2  0
  6  7  1  0
  7  8  2  0
  8  9  1  0
  9 10  1  0
 10 11  2  0
 11 12  1  0
 12 13  2  0
 13 14  1  0
 14 15  1  0
  9 16  2  0
 16  5  1  0
 14 10  1  0
M  END
>  <Energy>  (504) 
-5.3850765196641603

>  <Energy_Delta>  (504) 
4.0794922995246452e-09

>  <std_smi>  (504) 
CC(=O)Nc1cccc(-c2nccn2C)c1

>  <enum_smi>  (504) 
CC(O)=Nc1cccc(-c2nccn2C)c1

>  <enum_code>  (504) 
T

>  <parent_uuid>  (504) 
4ccbde05-ad72-4a71-92e8-f5f6debb7d19

>  <o3da_score>  (504) 
76.878669501137111

>  <o3da_score_rel>  (504) 
0.30606515343786672

>  <o3da_align>  (504) 
0.49132324588847998

>  <RMSD>  (504) 
6.435535329868427e-05

>  <CONVERGED>  (504) 
0

>  <ENERGY>  (504) 
-5.3850765241313141

$$$$
35dbf545-bba2-4118-adc5-98b2d26f3053
     RDKit          3D

 16 17  0  0  0  0  0  0  0  0999 V2000
   -3.5547   23.9484    3.0579 C   0  0  0  0  0  0  0  0  0  0  0  0
   -4.8104   24.4092    3.7232 C   0  0  0  0  0  0  0  0  0  0  0  0
   -5.8720   23.6273    3.4801 O   0  0  0  0  0  0  0  0  0  0  0  0
   -5.0086   25.4380    4.4760 N   0  0  0  0  0  0  0  0  0  0  0  0
   -3.9247   26.2847    4.7413 C   0  0  0  0  0  0  0  0  0  0  0  0
   -3.2124   26.1508    5.9351 C   0  0  0  0  0  0  0  0  0  0  0  0
   -2.1354   26.9923    6.2139 C   0  0  0  0  0  0  0  0  0  0  0  0
   -1.7779   27.9892    5.3044 C   0  0  0  0  0  0  0  0  0  0  0  0
   -2.5056   28.1617    4.1198 C   0  0  0  0  0  0  0  0  0  0  0  0
   -2.1557   29.1978    3.1480 C   0  0  0  0  0  0  0  0  0  0  0  0
   -1.9584   28.9820    1.8584 N   0  0  0  0  0  0  0  0  0  0  0  0
   -1.6529   30.1964    1.3057 C   0  0  0  0  0  0  0  0  0  0  0  0
   -1.6858   31.1833    2.2583 C   0  0  0  0  0  0  0  0  0  0  0  0
   -2.0257   30.5445    3.4203 N   0  0  0  0  0  0  0  0  0  0  0  0
   -2.2693   31.2035    4.6807 C   0  0  0  0  0  0  0  0  0  0  0  0
   -3.5741   27.2981    3.8452 C   0  0  0  0  0  0  0  0  0  0  0  0
  1  2  1  0
  2  3  1  0
  2  4  2  3
  4  5  1  0
  5  6  2  0
  6  7  1  0
  7  8  2  0
  8  9  1  0
  9 10  1  0
 10 11  2  0
 11 12  1  0
 12 13  2  0
 13 14  1  0
 14 15  1  0
  9 16  2  0
 16  5  1  0
 14 10  1  0
M  END
>  <Energy>  (505) 
-4.9662094941439454

>  <Energy_Delta>  (505) 
0.41886702959970723

>  <std_smi>  (505) 
CC(=O)Nc1cccc(-c2nccn2C)c1

>  <enum_smi>  (505) 
CC(O)=Nc1cccc(-c2nccn2C)c1

>  <enum_code>  (505) 
T

>  <parent_uuid>  (505) 
4ccbde05-ad72-4a71-92e8-f5f6debb7d19

>  <o3da_score>  (505) 
66.739826772026873

>  <o3da_score_rel>  (505) 
0.26570094740121536

>  <o3da_align>  (505) 
0.51743610394385953

>  <RMSD>  (505) 
7.1916307667103417e-05

>  <CONVERGED>  (505) 
0

>  <ENERGY>  (505) 
-4.966209494390986

$$$$
35dbf545-bba2-4118-adc5-98b2d26f3053
     RDKit          3D

 16 17  0  0  0  0  0  0  0  0999 V2000
   -0.0353   25.3210    4.2728 C   0  0  0  0  0  0  0  0  0  0  0  0
   -0.3991   24.6879    5.5761 C   0  0  0  0  0  0  0  0  0  0  0  0
    0.6575   24.3126    6.3110 O   0  0  0  0  0  0  0  0  0  0  0  0
   -1.5650   24.4657    6.0816 N   0  0  0  0  0  0  0  0  0  0  0  0
   -2.6921   24.8562    5.3472 C   0  0  0  0  0  0  0  0  0  0  0  0
   -3.3796   23.9174    4.5749 C   0  0  0  0  0  0  0  0  0  0  0  0
   -4.5072   24.2923    3.8444 C   0  0  0  0  0  0  0  0  0  0  0  0
   -4.9658   25.6096    3.9002 C   0  0  0  0  0  0  0  0  0  0  0  0
   -4.3103   26.5549    4.6998 C   0  0  0  0  0  0  0  0  0  0  0  0
   -4.7675   27.9422    4.7794 C   0  0  0  0  0  0  0  0  0  0  0  0
   -3.9975   28.9993    4.5830 N   0  0  0  0  0  0  0  0  0  0  0  0
   -4.7990   30.0969    4.7454 C   0  0  0  0  0  0  0  0  0  0  0  0
   -6.0769   29.7184    5.0718 C   0  0  0  0  0  0  0  0  0  0  0  0
   -6.0433   28.3506    5.1115 N   0  0  0  0  0  0  0  0  0  0  0  0
   -7.1488   27.5115    5.5063 C   0  0  0  0  0  0  0  0  0  0  0  0
   -3.1690   26.1680    5.4145 C   0  0  0  0  0  0  0  0  0  0  0  0
  1  2  1  0
  2  3  1  0
  2  4  2  3
  4  5  1  0
  5  6  2  0
  6  7  1  0
  7  8  2  0
  8  9  1  0
  9 10  1  0
 10 11  2  0
 11 12  1  0
 12 13  2  0
 13 14  1  0
 14 15  1  0
  9 16  2  0
 16  5  1  0
 14 10  1  0
M  END
>  <Energy>  (506) 
-4.966209494113091

>  <Energy_Delta>  (506) 
0.41886702963056166

>  <std_smi>  (506) 
CC(=O)Nc1cccc(-c2nccn2C)c1

>  <enum_smi>  (506) 
CC(O)=Nc1cccc(-c2nccn2C)c1

>  <enum_code>  (506) 
T

>  <parent_uuid>  (506) 
4ccbde05-ad72-4a71-92e8-f5f6debb7d19

>  <o3da_score>  (506) 
74.273077458022712

>  <o3da_score_rel>  (506) 
0.29569191293244279

>  <o3da_align>  (506) 
0.39249347796848683

>  <RMSD>  (506) 
5.7692369928576801e-05

>  <CONVERGED>  (506) 
0

>  <ENERGY>  (506) 
-4.9662094943786652

$$$$
35dbf545-bba2-4118-adc5-98b2d26f3053
     RDKit          3D

 16 17  0  0  0  0  0  0  0  0999 V2000
   -6.1449   29.7326    5.3063 C   0  0  0  0  0  0  0  0  0  0  0  0
   -5.6574   28.3220    5.3405 C   0  0  0  0  0  0  0  0  0  0  0  0
   -6.1962   27.6147    6.3522 O   0  0  0  0  0  0  0  0  0  0  0  0
   -4.8092   27.8601    4.4827 N   0  0  0  0  0  0  0  0  0  0  0  0
   -4.3879   26.5288    4.5551 C   0  0  0  0  0  0  0  0  0  0  0  0
   -5.0930   25.5288    3.8821 C   0  0  0  0  0  0  0  0  0  0  0  0
   -4.6851   24.1989    3.9715 C   0  0  0  0  0  0  0  0  0  0  0  0
   -3.5542   23.8694    4.7198 C   0  0  0  0  0  0  0  0  0  0  0  0
   -2.8112   24.8656    5.3669 C   0  0  0  0  0  0  0  0  0  0  0  0
   -1.6256   24.4899    6.1378 C   0  0  0  0  0  0  0  0  0  0  0  0
   -1.5903   23.5130    7.0287 N   0  0  0  0  0  0  0  0  0  0  0  0
   -0.3148   23.4873    7.5245 C   0  0  0  0  0  0  0  0  0  0  0  0
    0.4596   24.4423    6.9157 C   0  0  0  0  0  0  0  0  0  0  0  0
   -0.3737   25.0603    6.0224 N   0  0  0  0  0  0  0  0  0  0  0  0
    0.0368   26.0792    5.0862 C   0  0  0  0  0  0  0  0  0  0  0  0
   -3.2451   26.1946    5.2871 C   0  0  0  0  0  0  0  0  0  0  0  0
  1  2  1  0
  2  3  1  0
  2  4  2  3
  4  5  1  0
  5  6  2  0
  6  7  1  0
  7  8  2  0
  8  9  1  0
  9 10  1  0
 10 11  2  0
 11 12  1  0
 12 13  2  0
 13 14  1  0
 14 15  1  0
  9 16  2  0
 16  5  1  0
 14 10  1  0
M  END
>  <Energy>  (507) 
-2.5967308027518383

>  <Energy_Delta>  (507) 
2.7883457209918143

>  <std_smi>  (507) 
CC(=O)Nc1cccc(-c2nccn2C)c1

>  <enum_smi>  (507) 
CC(O)=Nc1cccc(-c2nccn2C)c1

>  <enum_code>  (507) 
T

>  <parent_uuid>  (507) 
4ccbde05-ad72-4a71-92e8-f5f6debb7d19

>  <o3da_score>  (507) 
70.468818568231555

>  <o3da_score_rel>  (507) 
0.28054660554904592

>  <o3da_align>  (507) 
0.38568299270167627

>  <RMSD>  (507) 
7.9491771990834758e-05

>  <CONVERGED>  (507) 
0

>  <ENERGY>  (507) 
-2.5967308030369463

$$$$
35dbf545-bba2-4118-adc5-98b2d26f3053
     RDKit          3D

 16 17  0  0  0  0  0  0  0  0999 V2000
   -0.0899   23.3792    7.4138 C   0  0  0  0  0  0  0  0  0  0  0  0
   -1.3810   23.8685    6.8459 C   0  0  0  0  0  0  0  0  0  0  0  0
   -2.3962   23.7857    7.7271 O   0  0  0  0  0  0  0  0  0  0  0  0
   -1.4816   24.3193    5.6395 N   0  0  0  0  0  0  0  0  0  0  0  0
   -2.7158   24.7614    5.1533 C   0  0  0  0  0  0  0  0  0  0  0  0
   -3.5872   23.8681    4.5266 C   0  0  0  0  0  0  0  0  0  0  0  0
   -4.8264   24.3045    4.0605 C   0  0  0  0  0  0  0  0  0  0  0  0
   -5.1877   25.6449    4.2025 C   0  0  0  0  0  0  0  0  0  0  0  0
   -4.3080   26.5629    4.7913 C   0  0  0  0  0  0  0  0  0  0  0  0
   -4.7120   27.9634    4.9192 C   0  0  0  0  0  0  0  0  0  0  0  0
   -5.8759   28.3659    5.4014 N   0  0  0  0  0  0  0  0  0  0  0  0
   -5.8608   29.7338    5.3573 C   0  0  0  0  0  0  0  0  0  0  0  0
   -4.6841   30.1870    4.8166 C   0  0  0  0  0  0  0  0  0  0  0  0
   -3.9691   29.0572    4.5221 N   0  0  0  0  0  0  0  0  0  0  0  0
   -2.6934   29.0457    3.8472 C   0  0  0  0  0  0  0  0  0  0  0  0
   -3.0756   26.1064    5.2751 C   0  0  0  0  0  0  0  0  0  0  0  0
  1  2  1  0
  2  3  1  0
  2  4  2  3
  4  5  1  0
  5  6  2  0
  6  7  1  0
  7  8  2  0
  8  9  1  0
  9 10  1  0
 10 11  2  0
 11 12  1  0
 12 13  2  0
 13 14  1  0
 14 15  1  0
  9 16  2  0
 16  5  1  0
 14 10  1  0
M  END
>  <Energy>  (508) 
-2.5967308025967046

>  <Energy_Delta>  (508) 
2.788345721146948

>  <std_smi>  (508) 
CC(=O)Nc1cccc(-c2nccn2C)c1

>  <enum_smi>  (508) 
CC(O)=Nc1cccc(-c2nccn2C)c1

>  <enum_code>  (508) 
T

>  <parent_uuid>  (508) 
4ccbde05-ad72-4a71-92e8-f5f6debb7d19

>  <o3da_score>  (508) 
73.914294510478427

>  <o3da_score_rel>  (508) 
0.29426354588858539

>  <o3da_align>  (508) 
0.35696431594560973

>  <RMSD>  (508) 
6.0348635828923006e-05

>  <CONVERGED>  (508) 
0

>  <ENERGY>  (508) 
-2.5967308030023659

$$$$
35dbf545-bba2-4118-adc5-98b2d26f3053
     RDKit          3D

 16 17  0  0  0  0  0  0  0  0999 V2000
   -7.6780   21.9200    3.7213 C   0  0  0  0  0  0  0  0  0  0  0  0
   -6.7058   22.9026    4.2853 C   0  0  0  0  0  0  0  0  0  0  0  0
   -6.9449   23.1770    5.5821 O   0  0  0  0  0  0  0  0  0  0  0  0
   -5.7476   23.4101    3.5835 N   0  0  0  0  0  0  0  0  0  0  0  0
   -4.8572   24.3239    4.1553 C   0  0  0  0  0  0  0  0  0  0  0  0
   -3.6048   23.8908    4.5944 C   0  0  0  0  0  0  0  0  0  0  0  0
   -2.7087   24.7898    5.1728 C   0  0  0  0  0  0  0  0  0  0  0  0
   -3.0582   26.1351    5.2999 C   0  0  0  0  0  0  0  0  0  0  0  0
   -4.2982   26.5915    4.8346 C   0  0  0  0  0  0  0  0  0  0  0  0
   -4.6950   27.9926    4.9630 C   0  0  0  0  0  0  0  0  0  0  0  0
   -5.8144   28.4057    5.5322 N   0  0  0  0  0  0  0  0  0  0  0  0
   -5.8071   29.7722    5.4499 C   0  0  0  0  0  0  0  0  0  0  0  0
   -4.6804   30.2118    4.8013 C   0  0  0  0  0  0  0  0  0  0  0  0
   -3.9896   29.0750    4.4788 N   0  0  0  0  0  0  0  0  0  0  0  0
   -2.7720   29.0414    3.7053 C   0  0  0  0  0  0  0  0  0  0  0  0
   -5.1938   25.6752    4.2684 C   0  0  0  0  0  0  0  0  0  0  0  0
  1  2  1  0
  2  3  1  0
  2  4  2  3
  4  5  1  0
  5  6  2  0
  6  7  1  0
  7  8  2  0
  8  9  1  0
  9 10  1  0
 10 11  2  0
 11 12  1  0
 12 13  2  0
 13 14  1  0
 14 15  1  0
  9 16  2  0
 16  5  1  0
 14 10  1  0
M  END
>  <Energy>  (509) 
-2.1163743348153576

>  <Energy_Delta>  (509) 
3.268702188928295

>  <std_smi>  (509) 
CC(=O)Nc1cccc(-c2nccn2C)c1

>  <enum_smi>  (509) 
CC(O)=Nc1cccc(-c2nccn2C)c1

>  <enum_code>  (509) 
T

>  <parent_uuid>  (509) 
4ccbde05-ad72-4a71-92e8-f5f6debb7d19

>  <o3da_score>  (509) 
73.59578291474611

>  <o3da_score_rel>  (509) 
0.29299550494755283

>  <o3da_align>  (509) 
0.37531911625319692

>  <RMSD>  (509) 
7.5790862573004754e-05

>  <CONVERGED>  (509) 
0

>  <ENERGY>  (509) 
-2.1163743349457871

$$$$
35dbf545-bba2-4118-adc5-98b2d26f3053
     RDKit          3D

 16 17  0  0  0  0  0  0  0  0999 V2000
   -5.7778   23.3468    3.7997 C   0  0  0  0  0  0  0  0  0  0  0  0
   -4.9729   24.5064    4.2860 C   0  0  0  0  0  0  0  0  0  0  0  0
   -3.6515   24.2462    4.2996 O   0  0  0  0  0  0  0  0  0  0  0  0
   -5.5142   25.6202    4.6530 N   0  0  0  0  0  0  0  0  0  0  0  0
   -4.7207   26.6784    5.1064 C   0  0  0  0  0  0  0  0  0  0  0  0
   -4.5768   26.9002    6.4772 C   0  0  0  0  0  0  0  0  0  0  0  0
   -3.7833   27.9479    6.9443 C   0  0  0  0  0  0  0  0  0  0  0  0
   -3.1406   28.7913    6.0367 C   0  0  0  0  0  0  0  0  0  0  0  0
   -3.3012   28.6019    4.6581 C   0  0  0  0  0  0  0  0  0  0  0  0
   -2.6329   29.4635    3.6844 C   0  0  0  0  0  0  0  0  0  0  0  0
   -1.8615   29.0281    2.7029 N   0  0  0  0  0  0  0  0  0  0  0  0
   -1.4342   30.1392    2.0269 C   0  0  0  0  0  0  0  0  0  0  0  0
   -1.9650   31.2768    2.5814 C   0  0  0  0  0  0  0  0  0  0  0  0
   -2.7397   30.8376    3.6207 N   0  0  0  0  0  0  0  0  0  0  0  0
   -3.5683   31.6825    4.4463 C   0  0  0  0  0  0  0  0  0  0  0  0
   -4.0899   27.5374    4.2030 C   0  0  0  0  0  0  0  0  0  0  0  0
  1  2  1  0
  2  3  1  0
  2  4  2  3
  4  5  1  0
  5  6  2  0
  6  7  1  0
  7  8  2  0
  8  9  1  0
  9 10  1  0
 10 11  2  0
 11 12  1  0
 12 13  2  0
 13 14  1  0
 14 15  1  0
  9 16  2  0
 16  5  1  0
 14 10  1  0
M  END
>  <Energy>  (510) 
-2.1163743347844779

>  <Energy_Delta>  (510) 
3.2687021889591747

>  <std_smi>  (510) 
CC(=O)Nc1cccc(-c2nccn2C)c1

>  <enum_smi>  (510) 
CC(O)=Nc1cccc(-c2nccn2C)c1

>  <enum_code>  (510) 
T

>  <parent_uuid>  (510) 
4ccbde05-ad72-4a71-92e8-f5f6debb7d19

>  <o3da_score>  (510) 
75.499480315230826

>  <o3da_score_rel>  (510) 
0.30057440089826909

>  <o3da_align>  (510) 
0.57033502786058587

>  <RMSD>  (510) 
7.686180145041994e-05

>  <CONVERGED>  (510) 
0

>  <ENERGY>  (510) 
-2.1163743350093833

$$$$
35dbf545-bba2-4118-adc5-98b2d26f3053
     RDKit          3D

 16 17  0  0  0  0  0  0  0  0999 V2000
    0.8149   23.4558    5.1745 C   0  0  0  0  0  0  0  0  0  0  0  0
   -0.5373   23.9141    4.7389 C   0  0  0  0  0  0  0  0  0  0  0  0
   -0.6875   23.8840    3.4005 O   0  0  0  0  0  0  0  0  0  0  0  0
   -1.4430   24.2987    5.5749 N   0  0  0  0  0  0  0  0  0  0  0  0
   -2.6941   24.7273    5.1197 C   0  0  0  0  0  0  0  0  0  0  0  0
   -3.7097   23.8041    4.8626 C   0  0  0  0  0  0  0  0  0  0  0  0
   -4.9559   24.2382    4.4150 C   0  0  0  0  0  0  0  0  0  0  0  0
   -5.1883   25.6015    4.2255 C   0  0  0  0  0  0  0  0  0  0  0  0
   -4.1822   26.5449    4.4791 C   0  0  0  0  0  0  0  0  0  0  0  0
   -4.4764   27.9692    4.2892 C   0  0  0  0  0  0  0  0  0  0  0  0
   -5.6176   28.5438    4.6349 N   0  0  0  0  0  0  0  0  0  0  0  0
   -5.5043   29.8673    4.3087 C   0  0  0  0  0  0  0  0  0  0  0  0
   -4.2906   30.1160    3.7212 C   0  0  0  0  0  0  0  0  0  0  0  0
   -3.6538   28.9036    3.6899 N   0  0  0  0  0  0  0  0  0  0  0  0
   -2.3772   28.6744    3.0575 C   0  0  0  0  0  0  0  0  0  0  0  0
   -2.9424   26.0931    4.9492 C   0  0  0  0  0  0  0  0  0  0  0  0
  1  2  1  0
  2  3  1  0
  2  4  2  3
  4  5  1  0
  5  6  2  0
  6  7  1  0
  7  8  2  0
  8  9  1  0
  9 10  1  0
 10 11  2  0
 11 12  1  0
 12 13  2  0
 13 14  1  0
 14 15  1  0
  9 16  2  0
 16  5  1  0
 14 10  1  0
M  END
>  <Energy>  (511) 
-1.1432075810049487

>  <Energy_Delta>  (511) 
4.2418689427387042

>  <std_smi>  (511) 
CC(=O)Nc1cccc(-c2nccn2C)c1

>  <enum_smi>  (511) 
CC(O)=Nc1cccc(-c2nccn2C)c1

>  <enum_code>  (511) 
T

>  <parent_uuid>  (511) 
4ccbde05-ad72-4a71-92e8-f5f6debb7d19

>  <o3da_score>  (511) 
71.78527925226706

>  <o3da_score_rel>  (511) 
0.28578762680850317

>  <o3da_align>  (511) 
0.39674540169789912

>  <RMSD>  (511) 
5.8597641246947551e-05

>  <CONVERGED>  (511) 
0

>  <ENERGY>  (511) 
-1.1432075810448092

$$$$
35dbf545-bba2-4118-adc5-98b2d26f3053
     RDKit          3D

 16 17  0  0  0  0  0  0  0  0999 V2000
   -1.4997   32.6922    0.8757 C   0  0  0  0  0  0  0  0  0  0  0  0
   -1.6195   31.6523    1.9399 C   0  0  0  0  0  0  0  0  0  0  0  0
   -0.9176   30.5382    1.6559 O   0  0  0  0  0  0  0  0  0  0  0  0
   -2.3200   31.8308    3.0095 N   0  0  0  0  0  0  0  0  0  0  0  0
   -2.4090   30.8271    3.9793 C   0  0  0  0  0  0  0  0  0  0  0  0
   -1.5567   30.8479    5.0843 C   0  0  0  0  0  0  0  0  0  0  0  0
   -1.6506   29.8623    6.0663 C   0  0  0  0  0  0  0  0  0  0  0  0
   -2.6004   28.8457    5.9447 C   0  0  0  0  0  0  0  0  0  0  0  0
   -3.4594   28.8030    4.8385 C   0  0  0  0  0  0  0  0  0  0  0  0
   -4.4765   27.7590    4.6847 C   0  0  0  0  0  0  0  0  0  0  0  0
   -5.7319   27.9866    4.3355 N   0  0  0  0  0  0  0  0  0  0  0  0
   -6.3563   26.7697    4.3066 C   0  0  0  0  0  0  0  0  0  0  0  0
   -5.4715   25.7671    4.6115 C   0  0  0  0  0  0  0  0  0  0  0  0
   -4.2763   26.3998    4.8271 N   0  0  0  0  0  0  0  0  0  0  0  0
   -3.0288   25.7203    5.0797 C   0  0  0  0  0  0  0  0  0  0  0  0
   -3.3678   29.8156    3.8725 C   0  0  0  0  0  0  0  0  0  0  0  0
  1  2  1  0
  2  3  1  0
  2  4  2  3
  4  5  1  0
  5  6  2  0
  6  7  1  0
  7  8  2  0
  8  9  1  0
  9 10  1  0
 10 11  2  0
 11 12  1  0
 12 13  2  0
 13 14  1  0
 14 15  1  0
  9 16  2  0
 16  5  1  0
 14 10  1  0
M  END
>  <Energy>  (512) 
-0.50782081855170214

>  <Energy_Delta>  (512) 
4.877255705191951

>  <std_smi>  (512) 
CC(=O)Nc1cccc(-c2nccn2C)c1

>  <enum_smi>  (512) 
CC(O)=Nc1cccc(-c2nccn2C)c1

>  <enum_code>  (512) 
T

>  <parent_uuid>  (512) 
4ccbde05-ad72-4a71-92e8-f5f6debb7d19

>  <o3da_score>  (512) 
62.848554931595118

>  <o3da_score_rel>  (512) 
0.25020922881869512

>  <o3da_align>  (512) 
0.43747693159611101

>  <RMSD>  (512) 
7.7520142899293611e-05

>  <CONVERGED>  (512) 
0

>  <ENERGY>  (512) 
-0.50782081893749687

$$$$
35dbf545-bba2-4118-adc5-98b2d26f3053
     RDKit          3D

 16 17  0  0  0  0  0  0  0  0999 V2000
   -2.2801   30.6747    3.5024 C   0  0  0  0  0  0  0  0  0  0  0  0
   -3.3216   29.6157    3.6502 C   0  0  0  0  0  0  0  0  0  0  0  0
   -3.9457   29.3383    2.4890 O   0  0  0  0  0  0  0  0  0  0  0  0
   -3.5808   29.0495    4.7810 N   0  0  0  0  0  0  0  0  0  0  0  0
   -4.5621   28.0573    4.8733 C   0  0  0  0  0  0  0  0  0  0  0  0
   -5.8587   28.3936    5.2651 C   0  0  0  0  0  0  0  0  0  0  0  0
   -6.8392   27.4086    5.3786 C   0  0  0  0  0  0  0  0  0  0  0  0
   -6.5255   26.0772    5.0968 C   0  0  0  0  0  0  0  0  0  0  0  0
   -5.2315   25.7210    4.6941 C   0  0  0  0  0  0  0  0  0  0  0  0
   -4.8632   24.3326    4.4031 C   0  0  0  0  0  0  0  0  0  0  0  0
   -3.7633   23.7447    4.8441 N   0  0  0  0  0  0  0  0  0  0  0  0
   -3.7859   22.4636    4.3649 C   0  0  0  0  0  0  0  0  0  0  0  0
   -4.8985   22.2590    3.5895 C   0  0  0  0  0  0  0  0  0  0  0  0
   -5.5647   23.4554    3.5993 N   0  0  0  0  0  0  0  0  0  0  0  0
   -6.7505   23.7338    2.8259 C   0  0  0  0  0  0  0  0  0  0  0  0
   -4.2514   26.7205    4.6085 C   0  0  0  0  0  0  0  0  0  0  0  0
  1  2  1  0
  2  3  1  0
  2  4  2  3
  4  5  1  0
  5  6  2  0
  6  7  1  0
  7  8  2  0
  8  9  1  0
  9 10  1  0
 10 11  2  0
 11 12  1  0
 12 13  2  0
 13 14  1  0
 14 15  1  0
  9 16  2  0
 16  5  1  0
 14 10  1  0
M  END
>  <Energy>  (513) 
-0.5078208185206885

>  <Energy_Delta>  (513) 
4.8772557052229644

>  <std_smi>  (513) 
CC(=O)Nc1cccc(-c2nccn2C)c1

>  <enum_smi>  (513) 
CC(O)=Nc1cccc(-c2nccn2C)c1

>  <enum_code>  (513) 
T

>  <parent_uuid>  (513) 
4ccbde05-ad72-4a71-92e8-f5f6debb7d19

>  <o3da_score>  (513) 
77.081438479275192

>  <o3da_score_rel>  (513) 
0.30687240620133127

>  <o3da_align>  (513) 
0.37213488279524604

>  <RMSD>  (513) 
7.3848976244384338e-05

>  <CONVERGED>  (513) 
0

>  <ENERGY>  (513) 
-0.50782081894161246

$$$$
3785ceda-591a-4c2d-86c8-31e32c43baf2
     RDKit          3D

 16 17  0  0  0  0  0  0  0  0999 V2000
   -3.0848   30.4456    4.6364 C   0  0  0  0  0  0  0  0  0  0  0  0
   -3.2797   29.0042    5.0488 C   0  0  0  0  0  0  0  0  0  0  0  0
   -4.4177   28.5331    5.1134 O   0  0  0  0  0  0  0  0  0  0  0  0
   -2.0881   28.4550    5.3233 N   0  0  0  0  0  2  0  0  0  0  0  0
   -1.9980   27.1183    5.5238 C   0  0  0  0  0  0  0  0  0  0  0  0
   -1.0217   26.6304    6.4044 C   0  0  0  0  0  0  0  0  0  0  0  0
   -0.8706   25.2622    6.6546 C   0  0  0  0  0  0  0  0  0  0  0  0
   -1.7136   24.3415    6.0355 C   0  0  0  0  0  0  0  0  0  0  0  0
   -2.7013   24.7821    5.1519 C   0  0  0  0  0  0  0  0  0  0  0  0
   -3.6342   23.8160    4.5590 C   0  0  0  0  0  0  0  0  0  0  0  0
   -3.3161   22.5962    4.1445 N   0  0  0  0  0  0  0  0  0  0  0  0
   -4.4692   22.0363    3.6671 C   0  0  0  0  0  0  0  0  0  0  0  0
   -5.5273   22.8948    3.8211 C   0  0  0  0  0  0  0  0  0  0  0  0
   -4.9959   24.0122    4.4115 N   0  0  0  0  0  0  0  0  0  0  0  0
   -5.7720   25.1464    4.8612 C   0  0  0  0  0  0  0  0  0  0  0  0
   -2.7872   26.1560    4.8695 C   0  0  0  0  0  0  0  0  0  0  0  0
  1  2  1  0
  2  3  2  0
  2  4  1  0
  4  5  1  0
  5  6  2  0
  6  7  1  0
  7  8  2  0
  8  9  1  0
  9 10  1  0
 10 11  2  0
 11 12  1  0
 12 13  2  0
 13 14  1  0
 14 15  1  0
  9 16  2  0
 16  5  1  0
 14 10  1  0
M  CHG  1   4  -1
M  END
>  <Energy>  (514) 
35.073421312203436

>  <Energy_Delta>  (514) 
0

>  <std_smi>  (514) 
CC(=O)Nc1cccc(-c2nccn2C)c1

>  <enum_smi>  (514) 
CC(=O)[N-]c1cccc(-c2nccn2C)c1

>  <enum_code>  (514) 
M

>  <parent_uuid>  (514) 
4ccbde05-ad72-4a71-92e8-f5f6debb7d19

>  <o3da_score>  (514) 
74.733875463108788

>  <o3da_score_rel>  (514) 
0.29752641674274155

>  <o3da_align>  (514) 
0.56800779716743621

>  <RMSD>  (514) 
6.9926994624711471e-05

>  <CONVERGED>  (514) 
0

>  <ENERGY>  (514) 
35.073421312897288

$$$$
3785ceda-591a-4c2d-86c8-31e32c43baf2
     RDKit          3D

 16 17  0  0  0  0  0  0  0  0999 V2000
    0.7087   24.4692    6.4629 C   0  0  0  0  0  0  0  0  0  0  0  0
   -0.4060   25.0408    5.6166 C   0  0  0  0  0  0  0  0  0  0  0  0
   -0.1827   26.0006    4.8750 O   0  0  0  0  0  0  0  0  0  0  0  0
   -1.5241   24.3282    5.8134 N   0  0  0  0  0  2  0  0  0  0  0  0
   -2.6996   24.7759    5.3105 C   0  0  0  0  0  0  0  0  0  0  0  0
   -3.6686   23.8404    4.9195 C   0  0  0  0  0  0  0  0  0  0  0  0
   -4.9053   24.2332    4.3964 C   0  0  0  0  0  0  0  0  0  0  0  0
   -5.1977   25.5859    4.2347 C   0  0  0  0  0  0  0  0  0  0  0  0
   -4.2621   26.5529    4.6091 C   0  0  0  0  0  0  0  0  0  0  0  0
   -4.5444   27.9734    4.3690 C   0  0  0  0  0  0  0  0  0  0  0  0
   -5.7266   28.5573    4.5183 N   0  0  0  0  0  0  0  0  0  0  0  0
   -5.5522   29.8741    4.1914 C   0  0  0  0  0  0  0  0  0  0  0  0
   -4.2613   30.1102    3.7940 C   0  0  0  0  0  0  0  0  0  0  0  0
   -3.6333   28.8948    3.8839 N   0  0  0  0  0  0  0  0  0  0  0  0
   -2.2745   28.6435    3.4582 C   0  0  0  0  0  0  0  0  0  0  0  0
   -3.0551   26.1311    5.1922 C   0  0  0  0  0  0  0  0  0  0  0  0
  1  2  1  0
  2  3  2  0
  2  4  1  0
  4  5  1  0
  5  6  2  0
  6  7  1  0
  7  8  2  0
  8  9  1  0
  9 10  1  0
 10 11  2  0
 11 12  1  0
 12 13  2  0
 13 14  1  0
 14 15  1  0
  9 16  2  0
 16  5  1  0
 14 10  1  0
M  CHG  1   4  -1
M  END
>  <Energy>  (515) 
35.073421315890734

>  <Energy_Delta>  (515) 
3.6872975783808215e-09

>  <std_smi>  (515) 
CC(=O)Nc1cccc(-c2nccn2C)c1

>  <enum_smi>  (515) 
CC(=O)[N-]c1cccc(-c2nccn2C)c1

>  <enum_code>  (515) 
M

>  <parent_uuid>  (515) 
4ccbde05-ad72-4a71-92e8-f5f6debb7d19

>  <o3da_score>  (515) 
78.486027517937401

>  <o3da_score_rel>  (515) 
0.31246427924524411

>  <o3da_align>  (515) 
0.42567385981963091

>  <RMSD>  (515) 
5.9800778986323861e-05

>  <CONVERGED>  (515) 
0

>  <ENERGY>  (515) 
35.073421311548437

$$$$
3785ceda-591a-4c2d-86c8-31e32c43baf2
     RDKit          3D

 16 17  0  0  0  0  0  0  0  0999 V2000
   -3.9140   30.9436    6.9223 C   0  0  0  0  0  0  0  0  0  0  0  0
   -3.9936   30.1400    5.6445 C   0  0  0  0  0  0  0  0  0  0  0  0
   -3.6688   30.6555    4.5737 O   0  0  0  0  0  0  0  0  0  0  0  0
   -4.3935   28.8939    5.9257 N   0  0  0  0  0  2  0  0  0  0  0  0
   -4.8230   28.0828    4.9294 C   0  0  0  0  0  0  0  0  0  0  0  0
   -5.5105   28.5032    3.7799 C   0  0  0  0  0  0  0  0  0  0  0  0
   -5.9585   27.5947    2.8147 C   0  0  0  0  0  0  0  0  0  0  0  0
   -5.7172   26.2320    2.9703 C   0  0  0  0  0  0  0  0  0  0  0  0
   -5.0276   25.7694    4.0928 C   0  0  0  0  0  0  0  0  0  0  0  0
   -4.7212   24.3402    4.2169 C   0  0  0  0  0  0  0  0  0  0  0  0
   -5.5592   23.3466    3.9544 N   0  0  0  0  0  0  0  0  0  0  0  0
   -4.8736   22.1876    4.1954 C   0  0  0  0  0  0  0  0  0  0  0  0
   -3.5825   22.4557    4.5724 C   0  0  0  0  0  0  0  0  0  0  0  0
   -3.4860   23.8224    4.5583 N   0  0  0  0  0  0  0  0  0  0  0  0
   -2.2662   24.5617    4.7841 C   0  0  0  0  0  0  0  0  0  0  0  0
   -4.6289   26.6972    5.0721 C   0  0  0  0  0  0  0  0  0  0  0  0
  1  2  1  0
  2  3  2  0
  2  4  1  0
  4  5  1  0
  5  6  2  0
  6  7  1  0
  7  8  2  0
  8  9  1  0
  9 10  1  0
 10 11  2  0
 11 12  1  0
 12 13  2  0
 13 14  1  0
 14 15  1  0
  9 16  2  0
 16  5  1  0
 14 10  1  0
M  CHG  1   4  -1
M  END
>  <Energy>  (516) 
38.112287893003533

>  <Energy_Delta>  (516) 
3.0388665808000965

>  <std_smi>  (516) 
CC(=O)Nc1cccc(-c2nccn2C)c1

>  <enum_smi>  (516) 
CC(=O)[N-]c1cccc(-c2nccn2C)c1

>  <enum_code>  (516) 
M

>  <parent_uuid>  (516) 
4ccbde05-ad72-4a71-92e8-f5f6debb7d19

>  <o3da_score>  (516) 
62.695722810686924

>  <o3da_score_rel>  (516) 
0.24960078193948232

>  <o3da_align>  (516) 
0.63220739001455584

>  <RMSD>  (516) 
7.1737452443924944e-05

>  <CONVERGED>  (516) 
0

>  <ENERGY>  (516) 
38.112287884419409

$$$$
3785ceda-591a-4c2d-86c8-31e32c43baf2
     RDKit          3D

 16 17  0  0  0  0  0  0  0  0999 V2000
   -2.8556   22.6050    5.0245 C   0  0  0  0  0  0  0  0  0  0  0  0
   -3.6314   23.8558    4.6797 C   0  0  0  0  0  0  0  0  0  0  0  0
   -4.8391   23.7847    4.4472 O   0  0  0  0  0  0  0  0  0  0  0  0
   -2.7966   24.9015    4.6404 N   0  0  0  0  0  2  0  0  0  0  0  0
   -3.2938   26.1615    4.6479 C   0  0  0  0  0  0  0  0  0  0  0  0
   -4.4598   26.5700    5.3144 C   0  0  0  0  0  0  0  0  0  0  0  0
   -4.8845   27.9032    5.3079 C   0  0  0  0  0  0  0  0  0  0  0  0
   -4.1538   28.8675    4.6182 C   0  0  0  0  0  0  0  0  0  0  0  0
   -2.9931   28.5047    3.9320 C   0  0  0  0  0  0  0  0  0  0  0  0
   -2.2654   29.5139    3.1550 C   0  0  0  0  0  0  0  0  0  0  0  0
   -1.9984   30.7497    3.5550 N   0  0  0  0  0  0  0  0  0  0  0  0
   -1.3129   31.3479    2.5333 C   0  0  0  0  0  0  0  0  0  0  0  0
   -1.1850   30.4939    1.4679 C   0  0  0  0  0  0  0  0  0  0  0  0
   -1.8144   29.3418    1.8599 N   0  0  0  0  0  0  0  0  0  0  0  0
   -2.0268   28.1928    1.0113 C   0  0  0  0  0  0  0  0  0  0  0  0
   -2.5611   27.1673    3.9927 C   0  0  0  0  0  0  0  0  0  0  0  0
  1  2  1  0
  2  3  2  0
  2  4  1  0
  4  5  1  0
  5  6  2  0
  6  7  1  0
  7  8  2  0
  8  9  1  0
  9 10  1  0
 10 11  2  0
 11 12  1  0
 12 13  2  0
 13 14  1  0
 14 15  1  0
  9 16  2  0
 16  5  1  0
 14 10  1  0
M  CHG  1   4  -1
M  END
>  <Energy>  (517) 
38.112287901530898

>  <Energy_Delta>  (517) 
3.038866589327462

>  <std_smi>  (517) 
CC(=O)Nc1cccc(-c2nccn2C)c1

>  <enum_smi>  (517) 
CC(=O)[N-]c1cccc(-c2nccn2C)c1

>  <enum_code>  (517) 
M

>  <parent_uuid>  (517) 
4ccbde05-ad72-4a71-92e8-f5f6debb7d19

>  <o3da_score>  (517) 
77.208726368701903

>  <o3da_score_rel>  (517) 
0.30737915778354474

>  <o3da_align>  (517) 
0.54772106358559014

>  <RMSD>  (517) 
6.651322878269379e-05

>  <CONVERGED>  (517) 
0

>  <ENERGY>  (517) 
38.112287884481987

$$$$
2137aaf8-819e-415c-9a97-e23de10d628b
     RDKit          3D

 16 17  0  0  0  0  0  0  0  0999 V2000
   -1.2124   21.6637    5.7910 C   0  0  0  0  0  0  0  0  0  0  0  0
   -1.6731   23.0933    5.6569 C   0  0  0  0  0  0  0  0  0  0  0  0
   -0.9985   24.0221    6.0933 O   0  0  0  0  0  0  0  0  0  0  0  0
   -2.9136   23.2037    5.0505 N   0  0  0  0  0  0  0  0  0  0  0  0
   -3.6081   24.3971    4.7666 C   0  0  0  0  0  0  0  0  0  0  0  0
   -4.9351   24.2965    4.3337 C   0  0  0  0  0  0  0  0  0  0  0  0
   -5.6865   25.4453    4.0617 C   0  0  0  0  0  0  0  0  0  0  0  0
   -5.1189   26.7081    4.2215 C   0  0  0  0  0  0  0  0  0  0  0  0
   -3.7942   26.8072    4.6440 C   0  0  0  0  0  0  0  0  0  0  0  0
   -3.1381   28.2203    4.8248 C   0  0  0  0  0  0  0  0  0  0  0  0
   -3.3199   29.2612    3.9968 N   0  0  0  0  0  4  0  0  0  0  0  0
   -2.5873   30.3497    4.3922 C   0  0  0  0  0  0  0  0  0  0  0  0
   -1.9396   29.9762    5.5316 C   0  0  0  0  0  0  0  0  0  0  0  0
   -2.3083   28.6629    5.7946 N   0  0  0  0  0  0  0  0  0  0  0  0
   -1.8723   27.8948    6.9609 C   0  0  0  0  0  0  0  0  0  0  0  0
   -3.0355   25.6626    4.8922 C   0  0  0  0  0  0  0  0  0  0  0  0
  1  2  1  0
  2  3  2  0
  2  4  1  0
  4  5  1  0
  5  6  2  0
  6  7  1  0
  7  8  2  0
  8  9  1  0
  9 10  1  0
 10 11  2  0
 11 12  1  0
 12 13  2  0
 13 14  1  0
 14 15  1  0
  9 16  2  0
 16  5  1  0
 14 10  1  0
M  CHG  1  11   1
M  END
>  <Energy>  (518) 
20.525690674388628

>  <Energy_Delta>  (518) 
0

>  <std_smi>  (518) 
CC(=O)Nc1cccc(-c2nccn2C)c1

>  <enum_smi>  (518) 
CC(=O)Nc1cccc(-c2[nH+]ccn2C)c1

>  <enum_code>  (518) 
M

>  <parent_uuid>  (518) 
4ccbde05-ad72-4a71-92e8-f5f6debb7d19

>  <o3da_score>  (518) 
63.568115504402321

>  <o3da_score_rel>  (518) 
0.25307390400822632

>  <o3da_align>  (518) 
0.64288593914561287

>  <RMSD>  (518) 
5.6757644715753595e-05

>  <CONVERGED>  (518) 
0

>  <ENERGY>  (518) 
20.525690673504933

$$$$
2137aaf8-819e-415c-9a97-e23de10d628b
     RDKit          3D

 16 17  0  0  0  0  0  0  0  0999 V2000
   -7.9378   22.6116    2.7404 C   0  0  0  0  0  0  0  0  0  0  0  0
   -7.1054   23.7942    3.1678 C   0  0  0  0  0  0  0  0  0  0  0  0
   -7.5341   24.9410    3.0722 O   0  0  0  0  0  0  0  0  0  0  0  0
   -5.8794   23.4255    3.6969 N   0  0  0  0  0  0  0  0  0  0  0  0
   -4.8721   24.2914    4.1688 C   0  0  0  0  0  0  0  0  0  0  0  0
   -3.7884   23.7266    4.8508 C   0  0  0  0  0  0  0  0  0  0  0  0
   -2.7699   24.5353    5.3673 C   0  0  0  0  0  0  0  0  0  0  0  0
   -2.8251   25.9188    5.2086 C   0  0  0  0  0  0  0  0  0  0  0  0
   -3.9002   26.4799    4.5213 C   0  0  0  0  0  0  0  0  0  0  0  0
   -3.9761   28.0347    4.3295 C   0  0  0  0  0  0  0  0  0  0  0  0
   -2.9282   28.8236    4.0435 N   0  0  0  0  0  4  0  0  0  0  0  0
   -3.3108   30.1313    3.8975 C   0  0  0  0  0  0  0  0  0  0  0  0
   -4.6538   30.1605    4.1273 C   0  0  0  0  0  0  0  0  0  0  0  0
   -5.0438   28.8581    4.4126 N   0  0  0  0  0  0  0  0  0  0  0  0
   -6.4052   28.4571    4.7682 C   0  0  0  0  0  0  0  0  0  0  0  0
   -4.9045   25.6734    3.9842 C   0  0  0  0  0  0  0  0  0  0  0  0
  1  2  1  0
  2  3  2  0
  2  4  1  0
  4  5  1  0
  5  6  2  0
  6  7  1  0
  7  8  2  0
  8  9  1  0
  9 10  1  0
 10 11  2  0
 11 12  1  0
 12 13  2  0
 13 14  1  0
 14 15  1  0
  9 16  2  0
 16  5  1  0
 14 10  1  0
M  CHG  1  11   1
M  END
>  <Energy>  (519) 
20.525690678186351

>  <Energy_Delta>  (519) 
3.7977230249452987e-09

>  <std_smi>  (519) 
CC(=O)Nc1cccc(-c2nccn2C)c1

>  <enum_smi>  (519) 
CC(=O)Nc1cccc(-c2[nH+]ccn2C)c1

>  <enum_code>  (519) 
M

>  <parent_uuid>  (519) 
4ccbde05-ad72-4a71-92e8-f5f6debb7d19

>  <o3da_score>  (519) 
75.48290717716516

>  <o3da_score_rel>  (519) 
0.30050842082762103

>  <o3da_align>  (519) 
0.41730117538601574

>  <RMSD>  (519) 
6.6345512153464674e-05

>  <CONVERGED>  (519) 
0

>  <ENERGY>  (519) 
20.525690673548315

$$$$
2137aaf8-819e-415c-9a97-e23de10d628b
     RDKit          3D

 16 17  0  0  0  0  0  0  0  0999 V2000
   -7.6634   22.0358    2.9756 C   0  0  0  0  0  0  0  0  0  0  0  0
   -7.0603   23.3481    3.4096 C   0  0  0  0  0  0  0  0  0  0  0  0
   -7.7372   24.3707    3.4638 O   0  0  0  0  0  0  0  0  0  0  0  0
   -5.7248   23.2357    3.7582 N   0  0  0  0  0  0  0  0  0  0  0  0
   -4.8734   24.2711    4.1947 C   0  0  0  0  0  0  0  0  0  0  0  0
   -3.5875   23.9209    4.6230 C   0  0  0  0  0  0  0  0  0  0  0  0
   -2.6998   24.8952    5.0933 C   0  0  0  0  0  0  0  0  0  0  0  0
   -3.0850   26.2338    5.1344 C   0  0  0  0  0  0  0  0  0  0  0  0
   -4.3553   26.5859    4.6854 C   0  0  0  0  0  0  0  0  0  0  0  0
   -4.8496   28.0734    4.7283 C   0  0  0  0  0  0  0  0  0  0  0  0
   -6.0829   28.4542    5.0965 N   0  0  0  0  0  4  0  0  0  0  0  0
   -6.2197   29.8158    5.0645 C   0  0  0  0  0  0  0  0  0  0  0  0
   -5.0226   30.3042    4.6329 C   0  0  0  0  0  0  0  0  0  0  0  0
   -4.1946   29.2099    4.4070 N   0  0  0  0  0  0  0  0  0  0  0  0
   -2.8503   29.2851    3.8458 C   0  0  0  0  0  0  0  0  0  0  0  0
   -5.2465   25.6149    4.2192 C   0  0  0  0  0  0  0  0  0  0  0  0
  1  2  1  0
  2  3  2  0
  2  4  1  0
  4  5  1  0
  5  6  2  0
  6  7  1  0
  7  8  2  0
  8  9  1  0
  9 10  1  0
 10 11  2  0
 11 12  1  0
 12 13  2  0
 13 14  1  0
 14 15  1  0
  9 16  2  0
 16  5  1  0
 14 10  1  0
M  CHG  1  11   1
M  END
>  <Energy>  (520) 
21.168804864562553

>  <Energy_Delta>  (520) 
0.64311419017392524

>  <std_smi>  (520) 
CC(=O)Nc1cccc(-c2nccn2C)c1

>  <enum_smi>  (520) 
CC(=O)Nc1cccc(-c2[nH+]ccn2C)c1

>  <enum_code>  (520) 
M

>  <parent_uuid>  (520) 
4ccbde05-ad72-4a71-92e8-f5f6debb7d19

>  <o3da_score>  (520) 
79.053093465702716

>  <o3da_score_rel>  (520) 
0.314721851175643

>  <o3da_align>  (520) 
0.38340403310863047

>  <RMSD>  (520) 
7.2653147732322181e-05

>  <CONVERGED>  (520) 
0

>  <ENERGY>  (520) 
21.168804863630786

$$$$
2137aaf8-819e-415c-9a97-e23de10d628b
     RDKit          3D

 16 17  0  0  0  0  0  0  0  0999 V2000
    0.8545   24.2254    6.3149 C   0  0  0  0  0  0  0  0  0  0  0  0
   -0.3782   25.0462    6.0301 C   0  0  0  0  0  0  0  0  0  0  0  0
   -0.4069   26.2507    6.2649 O   0  0  0  0  0  0  0  0  0  0  0  0
   -1.4255   24.2875    5.5350 N   0  0  0  0  0  0  0  0  0  0  0  0
   -2.7039   24.7499    5.1617 C   0  0  0  0  0  0  0  0  0  0  0  0
   -3.6644   23.7956    4.8065 C   0  0  0  0  0  0  0  0  0  0  0  0
   -4.9610   24.1834    4.4504 C   0  0  0  0  0  0  0  0  0  0  0  0
   -5.3112   25.5322    4.4382 C   0  0  0  0  0  0  0  0  0  0  0  0
   -4.3491   26.4835    4.7676 C   0  0  0  0  0  0  0  0  0  0  0  0
   -4.6928   28.0133    4.7912 C   0  0  0  0  0  0  0  0  0  0  0  0
   -4.2689   28.8732    5.7305 N   0  0  0  0  0  4  0  0  0  0  0  0
   -4.7483   30.1362    5.5098 C   0  0  0  0  0  0  0  0  0  0  0  0
   -5.4856   30.0641    4.3656 C   0  0  0  0  0  0  0  0  0  0  0  0
   -5.4203   28.7476    3.9221 N   0  0  0  0  0  0  0  0  0  0  0  0
   -5.9965   28.2604    2.6738 C   0  0  0  0  0  0  0  0  0  0  0  0
   -3.0541   26.0996    5.1283 C   0  0  0  0  0  0  0  0  0  0  0  0
  1  2  1  0
  2  3  2  0
  2  4  1  0
  4  5  1  0
  5  6  2  0
  6  7  1  0
  7  8  2  0
  8  9  1  0
  9 10  1  0
 10 11  2  0
 11 12  1  0
 12 13  2  0
 13 14  1  0
 14 15  1  0
  9 16  2  0
 16  5  1  0
 14 10  1  0
M  CHG  1  11   1
M  END
>  <Energy>  (521) 
21.168804867111575

>  <Energy_Delta>  (521) 
0.64311419272294756

>  <std_smi>  (521) 
CC(=O)Nc1cccc(-c2nccn2C)c1

>  <enum_smi>  (521) 
CC(=O)Nc1cccc(-c2[nH+]ccn2C)c1

>  <enum_code>  (521) 
M

>  <parent_uuid>  (521) 
4ccbde05-ad72-4a71-92e8-f5f6debb7d19

>  <o3da_score>  (521) 
70.984477966314131

>  <o3da_score_rel>  (521) 
0.28259952053599802

>  <o3da_align>  (521) 
0.483706265720031

>  <RMSD>  (521) 
6.8321796448950558e-05

>  <CONVERGED>  (521) 
0

>  <ENERGY>  (521) 
21.168804863619822

$$$$
2137aaf8-819e-415c-9a97-e23de10d628b
     RDKit          3D

 16 17  0  0  0  0  0  0  0  0999 V2000
   -7.6511   22.4306    2.4811 C   0  0  0  0  0  0  0  0  0  0  0  0
   -7.0062   23.6918    3.0000 C   0  0  0  0  0  0  0  0  0  0  0  0
   -7.5740   24.7731    2.9086 O   0  0  0  0  0  0  0  0  0  0  0  0
   -5.7721   23.4524    3.5846 N   0  0  0  0  0  0  0  0  0  0  0  0
   -4.9056   24.4037    4.1642 C   0  0  0  0  0  0  0  0  0  0  0  0
   -5.1737   25.7750    4.2115 C   0  0  0  0  0  0  0  0  0  0  0  0
   -4.2682   26.6668    4.7983 C   0  0  0  0  0  0  0  0  0  0  0  0
   -3.0779   26.1989    5.3434 C   0  0  0  0  0  0  0  0  0  0  0  0
   -2.8048   24.8344    5.2927 C   0  0  0  0  0  0  0  0  0  0  0  0
   -1.4756   24.2905    5.9098 C   0  0  0  0  0  0  0  0  0  0  0  0
   -1.3912   23.3038    6.8137 N   0  0  0  0  0  4  0  0  0  0  0  0
   -0.0906   23.0782    7.1846 C   0  0  0  0  0  0  0  0  0  0  0  0
    0.6671   23.9490    6.4583 C   0  0  0  0  0  0  0  0  0  0  0  0
   -0.2078   24.6793    5.6636 N   0  0  0  0  0  0  0  0  0  0  0  0
    0.1869   25.6899    4.6860 C   0  0  0  0  0  0  0  0  0  0  0  0
   -3.7078   23.9339    4.7165 C   0  0  0  0  0  0  0  0  0  0  0  0
  1  2  1  0
  2  3  2  0
  2  4  1  0
  4  5  1  0
  5  6  2  0
  6  7  1  0
  7  8  2  0
  8  9  1  0
  9 10  1  0
 10 11  2  0
 11 12  1  0
 12 13  2  0
 13 14  1  0
 14 15  1  0
  9 16  2  0
 16  5  1  0
 14 10  1  0
M  CHG  1  11   1
M  END
>  <Energy>  (522) 
28.804775055927117

>  <Energy_Delta>  (522) 
8.2790843815384889

>  <std_smi>  (522) 
CC(=O)Nc1cccc(-c2nccn2C)c1

>  <enum_smi>  (522) 
CC(=O)Nc1cccc(-c2[nH+]ccn2C)c1

>  <enum_code>  (522) 
M

>  <parent_uuid>  (522) 
4ccbde05-ad72-4a71-92e8-f5f6debb7d19

>  <o3da_score>  (522) 
70.231723244705847

>  <o3da_score_rel>  (522) 
0.27960269461711673

>  <o3da_align>  (522) 
0.25337382383595591

>  <RMSD>  (522) 
0.027033496654847177

>  <CONVERGED>  (522) 
0

>  <ENERGY>  (522) 
28.806175143177743

$$$$
2137aaf8-819e-415c-9a97-e23de10d628b
     RDKit          3D

 16 17  0  0  0  0  0  0  0  0999 V2000
   -2.3540   31.1065    3.9898 C   0  0  0  0  0  0  0  0  0  0  0  0
   -3.6008   30.4152    4.4831 C   0  0  0  0  0  0  0  0  0  0  0  0
   -4.5042   31.0491    5.0142 O   0  0  0  0  0  0  0  0  0  0  0  0
   -3.5575   29.0435    4.2864 N   0  0  0  0  0  0  0  0  0  0  0  0
   -4.5528   28.1027    4.6269 C   0  0  0  0  0  0  0  0  0  0  0  0
   -5.7762   28.4404    5.2133 C   0  0  0  0  0  0  0  0  0  0  0  0
   -6.7232   27.4570    5.5226 C   0  0  0  0  0  0  0  0  0  0  0  0
   -6.4609   26.1201    5.2454 C   0  0  0  0  0  0  0  0  0  0  0  0
   -5.2458   25.7807    4.6558 C   0  0  0  0  0  0  0  0  0  0  0  0
   -4.9308   24.2813    4.3466 C   0  0  0  0  0  0  0  0  0  0  0  0
   -3.8313   23.6254    4.7450 N   0  0  0  0  0  4  0  0  0  0  0  0
   -3.8613   22.3142    4.3451 C   0  0  0  0  0  0  0  0  0  0  0  0
   -5.0218   22.1578    3.6458 C   0  0  0  0  0  0  0  0  0  0  0  0
   -5.6615   23.3910    3.6446 N   0  0  0  0  0  0  0  0  0  0  0  0
   -6.9166   23.6876    2.9595 C   0  0  0  0  0  0  0  0  0  0  0  0
   -4.2890   26.7555    4.3513 C   0  0  0  0  0  0  0  0  0  0  0  0
  1  2  1  0
  2  3  2  0
  2  4  1  0
  4  5  1  0
  5  6  2  0
  6  7  1  0
  7  8  2  0
  8  9  1  0
  9 10  1  0
 10 11  2  0
 11 12  1  0
 12 13  2  0
 13 14  1  0
 14 15  1  0
  9 16  2  0
 16  5  1  0
 14 10  1  0
M  CHG  1  11   1
M  END
>  <Energy>  (523) 
28.804775055985537

>  <Energy_Delta>  (523) 
8.2790843815969097

>  <std_smi>  (523) 
CC(=O)Nc1cccc(-c2nccn2C)c1

>  <enum_smi>  (523) 
CC(=O)Nc1cccc(-c2[nH+]ccn2C)c1

>  <enum_code>  (523) 
M

>  <parent_uuid>  (523) 
4ccbde05-ad72-4a71-92e8-f5f6debb7d19

>  <o3da_score>  (523) 
72.568057160531097

>  <o3da_score_rel>  (523) 
0.28890397939570633

>  <o3da_align>  (523) 
0.45980531458742285

>  <RMSD>  (523) 
0.02705277837501208

>  <CONVERGED>  (523) 
0

>  <ENERGY>  (523) 
28.806175143227257

$$$$
2137aaf8-819e-415c-9a97-e23de10d628b
     RDKit          3D

 16 17  0  0  0  0  0  0  0  0999 V2000
   -0.1544   32.7430    1.4733 C   0  0  0  0  0  0  0  0  0  0  0  0
   -1.0901   32.5687    2.6437 C   0  0  0  0  0  0  0  0  0  0  0  0
   -1.4343   33.5280    3.3230 O   0  0  0  0  0  0  0  0  0  0  0  0
   -1.4482   31.2441    2.8422 N   0  0  0  0  0  0  0  0  0  0  0  0
   -2.3145   30.7361    3.8338 C   0  0  0  0  0  0  0  0  0  0  0  0
   -2.9912   31.5350    4.7606 C   0  0  0  0  0  0  0  0  0  0  0  0
   -3.8506   30.9683    5.7091 C   0  0  0  0  0  0  0  0  0  0  0  0
   -4.0427   29.5919    5.7461 C   0  0  0  0  0  0  0  0  0  0  0  0
   -3.3608   28.7923    4.8318 C   0  0  0  0  0  0  0  0  0  0  0  0
   -3.5838   27.2464    4.8740 C   0  0  0  0  0  0  0  0  0  0  0  0
   -4.7785   26.6392    4.8382 N   0  0  0  0  0  4  0  0  0  0  0  0
   -4.6457   25.2753    4.8654 C   0  0  0  0  0  0  0  0  0  0  0  0
   -3.3068   25.0271    4.9434 C   0  0  0  0  0  0  0  0  0  0  0  0
   -2.6673   26.2609    4.9638 N   0  0  0  0  0  0  0  0  0  0  0  0
   -1.2301   26.4619    5.1212 C   0  0  0  0  0  0  0  0  0  0  0  0
   -2.5067   29.3499    3.8744 C   0  0  0  0  0  0  0  0  0  0  0  0
  1  2  1  0
  2  3  2  0
  2  4  1  0
  4  5  1  0
  5  6  2  0
  6  7  1  0
  7  8  2  0
  8  9  1  0
  9 10  1  0
 10 11  2  0
 11 12  1  0
 12 13  2  0
 13 14  1  0
 14 15  1  0
  9 16  2  0
 16  5  1  0
 14 10  1  0
M  CHG  1  11   1
M  END
>  <Energy>  (524) 
28.912966698760069

>  <Energy_Delta>  (524) 
8.3872760243714417

>  <std_smi>  (524) 
CC(=O)Nc1cccc(-c2nccn2C)c1

>  <enum_smi>  (524) 
CC(=O)Nc1cccc(-c2[nH+]ccn2C)c1

>  <enum_code>  (524) 
M

>  <parent_uuid>  (524) 
4ccbde05-ad72-4a71-92e8-f5f6debb7d19

>  <o3da_score>  (524) 
78.039428538790688

>  <o3da_score_rel>  (524) 
0.31068630382026996

>  <o3da_align>  (524) 
0.49542992310056988

>  <RMSD>  (524) 
6.8589175762347469e-05

>  <CONVERGED>  (524) 
0

>  <ENERGY>  (524) 
28.91296669850222

$$$$
2137aaf8-819e-415c-9a97-e23de10d628b
     RDKit          3D

 16 17  0  0  0  0  0  0  0  0999 V2000
   -1.5932   33.3230    1.0852 C   0  0  0  0  0  0  0  0  0  0  0  0
   -1.3960   32.8242    2.4952 C   0  0  0  0  0  0  0  0  0  0  0  0
   -0.7006   33.4432    3.2910 O   0  0  0  0  0  0  0  0  0  0  0  0
   -2.0542   31.6264    2.7284 N   0  0  0  0  0  0  0  0  0  0  0  0
   -2.0669   30.8811    3.9268 C   0  0  0  0  0  0  0  0  0  0  0  0
   -1.3887   31.2620    5.0886 C   0  0  0  0  0  0  0  0  0  0  0  0
   -1.4301   30.4680    6.2407 C   0  0  0  0  0  0  0  0  0  0  0  0
   -2.1553   29.2819    6.2480 C   0  0  0  0  0  0  0  0  0  0  0  0
   -2.8435   28.9068    5.0966 C   0  0  0  0  0  0  0  0  0  0  0  0
   -3.6522   27.5698    5.1076 C   0  0  0  0  0  0  0  0  0  0  0  0
   -3.1591   26.3743    5.4609 N   0  0  0  0  0  4  0  0  0  0  0  0
   -4.1053   25.3898    5.3429 C   0  0  0  0  0  0  0  0  0  0  0  0
   -5.2438   26.0086    4.9171 C   0  0  0  0  0  0  0  0  0  0  0  0
   -4.9470   27.3607    4.7929 N   0  0  0  0  0  0  0  0  0  0  0  0
   -5.9042   28.4035    4.4369 C   0  0  0  0  0  0  0  0  0  0  0  0
   -2.8018   29.6894    3.9378 C   0  0  0  0  0  0  0  0  0  0  0  0
  1  2  1  0
  2  3  2  0
  2  4  1  0
  4  5  1  0
  5  6  2  0
  6  7  1  0
  7  8  2  0
  8  9  1  0
  9 10  1  0
 10 11  2  0
 11 12  1  0
 12 13  2  0
 13 14  1  0
 14 15  1  0
  9 16  2  0
 16  5  1  0
 14 10  1  0
M  CHG  1  11   1
M  END
>  <Energy>  (525) 
28.912966700483377

>  <Energy_Delta>  (525) 
8.3872760260947494

>  <std_smi>  (525) 
CC(=O)Nc1cccc(-c2nccn2C)c1

>  <enum_smi>  (525) 
CC(=O)Nc1cccc(-c2[nH+]ccn2C)c1

>  <enum_code>  (525) 
M

>  <parent_uuid>  (525) 
4ccbde05-ad72-4a71-92e8-f5f6debb7d19

>  <o3da_score>  (525) 
75.802330273339138

>  <o3da_score_rel>  (525) 
0.30178009058434907

>  <o3da_align>  (525) 
0.55834042467285572

>  <RMSD>  (525) 
0.027039362362642986

>  <CONVERGED>  (525) 
0

>  <ENERGY>  (525) 
28.924943330542213

$$$$
45dac9ae-5813-432b-bded-7b32bdc3ac1b
     RDKit          3D

 16 17  0  0  0  0  0  0  0  0999 V2000
    0.2060   28.5183    9.3092 C   0  0  0  0  0  0  0  0  0  0  0  0
   -0.5805   28.0440    8.1086 C   0  0  0  0  0  0  0  0  0  0  0  0
   -1.1666   28.8603    7.3908 O   0  0  0  0  0  0  0  0  0  0  0  0
   -0.4900   26.7071    8.0105 N   0  0  0  0  0  2  0  0  0  0  0  0
   -1.1836   26.0828    7.0327 C   0  0  0  0  0  0  0  0  0  0  0  0
   -0.6257   24.9705    6.3837 C   0  0  0  0  0  0  0  0  0  0  0  0
   -1.2767   24.3315    5.3192 C   0  0  0  0  0  0  0  0  0  0  0  0
   -2.4995   24.8118    4.8613 C   0  0  0  0  0  0  0  0  0  0  0  0
   -3.0652   25.9010    5.5141 C   0  0  0  0  0  0  0  0  0  0  0  0
   -4.3519   26.5794    4.9731 C   0  0  0  0  0  0  0  0  0  0  0  0
   -5.4612   25.9413    4.5657 N   0  0  0  0  0  4  0  0  0  0  0  0
   -6.4298   26.8287    4.1814 C   0  0  0  0  0  0  0  0  0  0  0  0
   -5.8884   28.0727    4.3251 C   0  0  0  0  0  0  0  0  0  0  0  0
   -4.5989   27.8959    4.7924 N   0  0  0  0  0  0  0  0  0  0  0  0
   -3.6276   28.9648    5.0638 C   0  0  0  0  0  0  0  0  0  0  0  0
   -2.4572   26.4750    6.6244 C   0  0  0  0  0  0  0  0  0  0  0  0
  1  2  1  0
  2  3  2  0
  2  4  1  0
  4  5  1  0
  5  6  2  0
  6  7  1  0
  7  8  2  0
  8  9  1  0
  9 10  1  0
 10 11  2  0
 11 12  1  0
 12 13  2  0
 13 14  1  0
 14 15  1  0
  9 16  2  0
 16  5  1  0
 14 10  1  0
M  CHG  2   4  -1  11   1
M  END
>  <Energy>  (526) 
-3.2731835334595774

>  <Energy_Delta>  (526) 
0

>  <std_smi>  (526) 
CC(=O)Nc1cccc(-c2nccn2C)c1

>  <enum_smi>  (526) 
CC(=O)[N-]c1cccc(-c2[nH+]ccn2C)c1

>  <enum_code>  (526) 
M

>  <parent_uuid>  (526) 
4ccbde05-ad72-4a71-92e8-f5f6debb7d19

>  <o3da_score>  (526) 
70.280966405681752

>  <o3da_score_rel>  (526) 
0.27979873879579015

>  <o3da_align>  (526) 
0.36756457280182925

>  <RMSD>  (526) 
7.1283566821570801e-05

>  <CONVERGED>  (526) 
0

>  <ENERGY>  (526) 
-3.2731835336774253

$$$$
45dac9ae-5813-432b-bded-7b32bdc3ac1b
     RDKit          3D

 16 17  0  0  0  0  0  0  0  0999 V2000
    1.8647   28.7669    3.6613 C   0  0  0  0  0  0  0  0  0  0  0  0
    0.5661   28.2159    4.2044 C   0  0  0  0  0  0  0  0  0  0  0  0
   -0.3340   28.9851    4.5555 O   0  0  0  0  0  0  0  0  0  0  0  0
    0.6211   26.8737    4.2274 N   0  0  0  0  0  2  0  0  0  0  0  0
   -0.4755   26.1889    4.6218 C   0  0  0  0  0  0  0  0  0  0  0  0
   -0.3300   25.0149    5.3768 C   0  0  0  0  0  0  0  0  0  0  0  0
   -1.4372   24.3075    5.8657 C   0  0  0  0  0  0  0  0  0  0  0  0
   -2.7248   24.7781    5.6282 C   0  0  0  0  0  0  0  0  0  0  0  0
   -2.8743   25.9297    4.8639 C   0  0  0  0  0  0  0  0  0  0  0  0
   -4.2651   26.5925    4.6775 C   0  0  0  0  0  0  0  0  0  0  0  0
   -5.4033   25.9500    4.3685 N   0  0  0  0  0  4  0  0  0  0  0  0
   -6.4469   26.8261    4.2394 C   0  0  0  0  0  0  0  0  0  0  0  0
   -5.9433   28.0645    4.5119 C   0  0  0  0  0  0  0  0  0  0  0  0
   -4.6018   27.8955    4.8021 N   0  0  0  0  0  0  0  0  0  0  0  0
   -3.6633   28.9595    5.1854 C   0  0  0  0  0  0  0  0  0  0  0  0
   -1.7769   26.5770    4.3082 C   0  0  0  0  0  0  0  0  0  0  0  0
  1  2  1  0
  2  3  2  0
  2  4  1  0
  4  5  1  0
  5  6  2  0
  6  7  1  0
  7  8  2  0
  8  9  1  0
  9 10  1  0
 10 11  2  0
 11 12  1  0
 12 13  2  0
 13 14  1  0
 14 15  1  0
  9 16  2  0
 16  5  1  0
 14 10  1  0
M  CHG  2   4  -1  11   1
M  END
>  <Energy>  (527) 
-3.2731835325647802

>  <Energy_Delta>  (527) 
8.9479712528373057e-10

>  <std_smi>  (527) 
CC(=O)Nc1cccc(-c2nccn2C)c1

>  <enum_smi>  (527) 
CC(=O)[N-]c1cccc(-c2[nH+]ccn2C)c1

>  <enum_code>  (527) 
M

>  <parent_uuid>  (527) 
4ccbde05-ad72-4a71-92e8-f5f6debb7d19

>  <o3da_score>  (527) 
70.501017102242628

>  <o3da_score_rel>  (527) 
0.28067479259125833

>  <o3da_align>  (527) 
0.37282157958555728

>  <RMSD>  (527) 
6.8516206769192133e-05

>  <CONVERGED>  (527) 
0

>  <ENERGY>  (527) 
-3.2731835337230746

$$$$
45dac9ae-5813-432b-bded-7b32bdc3ac1b
     RDKit          3D

 16 17  0  0  0  0  0  0  0  0999 V2000
    0.7008   24.4594    6.4787 C   0  0  0  0  0  0  0  0  0  0  0  0
   -0.4795   25.1361    5.8198 C   0  0  0  0  0  0  0  0  0  0  0  0
   -0.3779   26.2967    5.4109 O   0  0  0  0  0  0  0  0  0  0  0  0
   -1.5181   24.2861    5.7756 N   0  0  0  0  0  2  0  0  0  0  0  0
   -2.6992   24.7185    5.2801 C   0  0  0  0  0  0  0  0  0  0  0  0
   -3.5243   23.8250    4.5796 C   0  0  0  0  0  0  0  0  0  0  0  0
   -4.7306   24.2336    3.9936 C   0  0  0  0  0  0  0  0  0  0  0  0
   -5.1378   25.5609    4.0866 C   0  0  0  0  0  0  0  0  0  0  0  0
   -4.3455   26.4431    4.8103 C   0  0  0  0  0  0  0  0  0  0  0  0
   -4.6255   27.9687    4.8649 C   0  0  0  0  0  0  0  0  0  0  0  0
   -3.6688   28.9062    4.7655 N   0  0  0  0  0  4  0  0  0  0  0  0
   -4.1874   30.1648    4.8230 C   0  0  0  0  0  0  0  0  0  0  0  0
   -5.5335   30.0085    4.9824 C   0  0  0  0  0  0  0  0  0  0  0  0
   -5.7851   28.6430    5.0241 N   0  0  0  0  0  0  0  0  0  0  0  0
   -7.0752   28.0203    5.2775 C   0  0  0  0  0  0  0  0  0  0  0  0
   -3.1749   26.0197    5.4343 C   0  0  0  0  0  0  0  0  0  0  0  0
  1  2  1  0
  2  3  2  0
  2  4  1  0
  4  5  1  0
  5  6  2  0
  6  7  1  0
  7  8  2  0
  8  9  1  0
  9 10  1  0
 10 11  2  0
 11 12  1  0
 12 13  2  0
 13 14  1  0
 14 15  1  0
  9 16  2  0
 16  5  1  0
 14 10  1  0
M  CHG  2   4  -1  11   1
M  END
>  <Energy>  (528) 
-1.3151582276692502

>  <Energy_Delta>  (528) 
1.9580253057903272

>  <std_smi>  (528) 
CC(=O)Nc1cccc(-c2nccn2C)c1

>  <enum_smi>  (528) 
CC(=O)[N-]c1cccc(-c2[nH+]ccn2C)c1

>  <enum_code>  (528) 
M

>  <parent_uuid>  (528) 
4ccbde05-ad72-4a71-92e8-f5f6debb7d19

>  <o3da_score>  (528) 
74.699959723473413

>  <o3da_score_rel>  (528) 
0.2973913932554359

>  <o3da_align>  (528) 
0.2336329041905571

>  <RMSD>  (528) 
6.5762050659405949e-05

>  <CONVERGED>  (528) 
0

>  <ENERGY>  (528) 
-1.3151582278920189

$$$$
45dac9ae-5813-432b-bded-7b32bdc3ac1b
     RDKit          3D

 16 17  0  0  0  0  0  0  0  0999 V2000
   -3.4048   22.3595    4.5572 C   0  0  0  0  0  0  0  0  0  0  0  0
   -3.5812   23.8392    4.8116 C   0  0  0  0  0  0  0  0  0  0  0  0
   -2.6619   24.4946    5.3113 O   0  0  0  0  0  0  0  0  0  0  0  0
   -4.8127   24.2171    4.4322 N   0  0  0  0  0  2  0  0  0  0  0  0
   -5.1534   25.5226    4.5163 C   0  0  0  0  0  0  0  0  0  0  0  0
   -6.4775   25.8737    4.8218 C   0  0  0  0  0  0  0  0  0  0  0  0
   -6.8727   27.2094    4.9800 C   0  0  0  0  0  0  0  0  0  0  0  0
   -5.9408   28.2340    4.8456 C   0  0  0  0  0  0  0  0  0  0  0  0
   -4.6367   27.8970    4.5063 C   0  0  0  0  0  0  0  0  0  0  0  0
   -3.4861   28.9378    4.4660 C   0  0  0  0  0  0  0  0  0  0  0  0
   -2.2570   28.7097    4.9574 N   0  0  0  0  0  4  0  0  0  0  0  0
   -1.4460   29.7949    4.8127 C   0  0  0  0  0  0  0  0  0  0  0  0
   -2.1989   30.7443    4.1854 C   0  0  0  0  0  0  0  0  0  0  0  0
   -3.4533   30.1908    3.9624 N   0  0  0  0  0  0  0  0  0  0  0  0
   -4.5453   30.8175    3.2337 C   0  0  0  0  0  0  0  0  0  0  0  0
   -4.2620   26.5719    4.2991 C   0  0  0  0  0  0  0  0  0  0  0  0
  1  2  1  0
  2  3  2  0
  2  4  1  0
  4  5  1  0
  5  6  2  0
  6  7  1  0
  7  8  2  0
  8  9  1  0
  9 10  1  0
 10 11  2  0
 11 12  1  0
 12 13  2  0
 13 14  1  0
 14 15  1  0
  9 16  2  0
 16  5  1  0
 14 10  1  0
M  CHG  2   4  -1  11   1
M  END
>  <Energy>  (529) 
-1.3151582275031781

>  <Energy_Delta>  (529) 
1.9580253059563992

>  <std_smi>  (529) 
CC(=O)Nc1cccc(-c2nccn2C)c1

>  <enum_smi>  (529) 
CC(=O)[N-]c1cccc(-c2[nH+]ccn2C)c1

>  <enum_code>  (529) 
M

>  <parent_uuid>  (529) 
4ccbde05-ad72-4a71-92e8-f5f6debb7d19

>  <o3da_score>  (529) 
74.716358910906635

>  <o3da_score_rel>  (529) 
0.29745668080334192

>  <o3da_align>  (529) 
0.40884622985180802

>  <RMSD>  (529) 
8.0836205122228783e-05

>  <CONVERGED>  (529) 
0

>  <ENERGY>  (529) 
-1.3151582278851457

$$$$
45dac9ae-5813-432b-bded-7b32bdc3ac1b
     RDKit          3D

 16 17  0  0  0  0  0  0  0  0999 V2000
   -5.4598   22.0508    3.8205 C   0  0  0  0  0  0  0  0  0  0  0  0
   -5.7776   23.5128    3.6098 C   0  0  0  0  0  0  0  0  0  0  0  0
   -6.5921   23.8542    2.7516 O   0  0  0  0  0  0  0  0  0  0  0  0
   -5.0324   24.2632    4.4331 N   0  0  0  0  0  2  0  0  0  0  0  0
   -5.3603   25.5671    4.5620 C   0  0  0  0  0  0  0  0  0  0  0  0
   -6.6696   26.0374    4.7719 C   0  0  0  0  0  0  0  0  0  0  0  0
   -6.9519   27.3999    4.9188 C   0  0  0  0  0  0  0  0  0  0  0  0
   -5.9208   28.3292    4.8718 C   0  0  0  0  0  0  0  0  0  0  0  0
   -4.6195   27.8690    4.6872 C   0  0  0  0  0  0  0  0  0  0  0  0
   -3.4467   28.8803    4.6234 C   0  0  0  0  0  0  0  0  0  0  0  0
   -3.4142   29.9794    3.8536 N   0  0  0  0  0  4  0  0  0  0  0  0
   -2.2258   30.6431    3.9843 C   0  0  0  0  0  0  0  0  0  0  0  0
   -1.4983   29.9434    4.9024 C   0  0  0  0  0  0  0  0  0  0  0  0
   -2.2779   28.8696    5.2995 N   0  0  0  0  0  0  0  0  0  0  0  0
   -1.9135   27.8615    6.2916 C   0  0  0  0  0  0  0  0  0  0  0  0
   -4.3370   26.5132    4.5336 C   0  0  0  0  0  0  0  0  0  0  0  0
  1  2  1  0
  2  3  2  0
  2  4  1  0
  4  5  1  0
  5  6  2  0
  6  7  1  0
  7  8  2  0
  8  9  1  0
  9 10  1  0
 10 11  2  0
 11 12  1  0
 12 13  2  0
 13 14  1  0
 14 15  1  0
  9 16  2  0
 16  5  1  0
 14 10  1  0
M  CHG  2   4  -1  11   1
M  END
>  <Energy>  (530) 
5.2481472382714465

>  <Energy_Delta>  (530) 
8.5213307717310229

>  <std_smi>  (530) 
CC(=O)Nc1cccc(-c2nccn2C)c1

>  <enum_smi>  (530) 
CC(=O)[N-]c1cccc(-c2[nH+]ccn2C)c1

>  <enum_code>  (530) 
M

>  <parent_uuid>  (530) 
4ccbde05-ad72-4a71-92e8-f5f6debb7d19

>  <o3da_score>  (530) 
67.803818243778181

>  <o3da_score_rel>  (530) 
0.26993685204383311

>  <o3da_align>  (530) 
0.34547608815428005

>  <RMSD>  (530) 
6.9690855887305316e-05

>  <CONVERGED>  (530) 
0

>  <ENERGY>  (530) 
5.248147238200767

$$$$
45dac9ae-5813-432b-bded-7b32bdc3ac1b
     RDKit          3D

 16 17  0  0  0  0  0  0  0  0999 V2000
   -0.2347   23.4078    6.9975 C   0  0  0  0  0  0  0  0  0  0  0  0
   -1.1598   24.2402    6.1395 C   0  0  0  0  0  0  0  0  0  0  0  0
   -0.7282   25.2386    5.5545 O   0  0  0  0  0  0  0  0  0  0  0  0
   -2.3861   23.6918    6.1330 N   0  0  0  0  0  2  0  0  0  0  0  0
   -3.3751   24.3292    5.4675 C   0  0  0  0  0  0  0  0  0  0  0  0
   -4.3477   23.5838    4.7830 C   0  0  0  0  0  0  0  0  0  0  0  0
   -5.3521   24.1994    4.0229 C   0  0  0  0  0  0  0  0  0  0  0  0
   -5.3906   25.5857    3.9110 C   0  0  0  0  0  0  0  0  0  0  0  0
   -4.4430   26.3285    4.6052 C   0  0  0  0  0  0  0  0  0  0  0  0
   -4.3356   27.8653    4.4187 C   0  0  0  0  0  0  0  0  0  0  0  0
   -5.3643   28.7287    4.4270 N   0  0  0  0  0  4  0  0  0  0  0  0
   -4.9297   30.0174    4.2741 C   0  0  0  0  0  0  0  0  0  0  0  0
   -3.5741   29.9505    4.1344 C   0  0  0  0  0  0  0  0  0  0  0  0
   -3.2306   28.6128    4.2013 N   0  0  0  0  0  0  0  0  0  0  0  0
   -1.8739   28.0644    4.0676 C   0  0  0  0  0  0  0  0  0  0  0  0
   -3.5031   25.7165    5.4263 C   0  0  0  0  0  0  0  0  0  0  0  0
  1  2  1  0
  2  3  2  0
  2  4  1  0
  4  5  1  0
  5  6  2  0
  6  7  1  0
  7  8  2  0
  8  9  1  0
  9 10  1  0
 10 11  2  0
 11 12  1  0
 12 13  2  0
 13 14  1  0
 14 15  1  0
  9 16  2  0
 16  5  1  0
 14 10  1  0
M  CHG  2   4  -1  11   1
M  END
>  <Energy>  (531) 
5.2481472383224883

>  <Energy_Delta>  (531) 
8.5213307717820648

>  <std_smi>  (531) 
CC(=O)Nc1cccc(-c2nccn2C)c1

>  <enum_smi>  (531) 
CC(=O)[N-]c1cccc(-c2[nH+]ccn2C)c1

>  <enum_code>  (531) 
M

>  <parent_uuid>  (531) 
4ccbde05-ad72-4a71-92e8-f5f6debb7d19

>  <o3da_score>  (531) 
70.897823901192325

>  <o3da_score_rel>  (531) 
0.28225453811226958

>  <o3da_align>  (531) 
0.41448392376975673

>  <RMSD>  (531) 
1.089880623727391

>  <CONVERGED>  (531) 
1

>  <ENERGY>  (531) 
-3.2420190396614252

$$$$
159e9a67-9ddd-4f06-8bc8-f63c27ed1469
     RDKit          3D

 16 17  0  0  0  0  0  0  0  0999 V2000
   -3.7404   24.2134    4.6411 C   0  0  0  0  0  0  0  0  0  0  0  0
   -3.9129   25.1186    3.4259 C   0  0  0  0  0  0  0  0  0  0  0  0
   -3.2903   26.4405    3.5973 N   0  0  0  0  0  0  0  0  0  0  0  0
   -3.3217   27.1854    2.3325 C   0  0  0  0  0  0  0  0  0  0  0  0
   -2.4847   28.4657    2.4391 C   0  0  0  0  0  0  0  0  0  0  0  0
   -2.7940   29.2939    3.6678 C   0  0  0  0  0  0  0  0  0  0  0  0
   -3.4961   28.6731    4.7262 C   0  0  0  0  0  0  0  0  0  0  0  0
   -3.8151   29.4114    5.8740 C   0  0  0  0  0  0  0  0  0  0  0  0
   -3.4196   30.7383    5.9877 C   0  0  0  0  0  0  0  0  0  0  0  0
   -2.6956   31.3431    4.9599 C   0  0  0  0  0  0  0  0  0  0  0  0
   -2.3637   30.6367    3.7988 C   0  0  0  0  0  0  0  0  0  0  0  0
   -1.5935   31.2165    2.7614 N   0  0  0  0  0  0  0  0  0  0  0  0
   -1.1246   32.5153    2.6698 C   0  0  0  0  0  0  0  0  0  0  0  0
   -0.3068   32.7329    1.4203 C   0  0  0  0  0  0  0  0  0  0  0  0
   -1.3306   33.4394    3.4478 O   0  0  0  0  0  0  0  0  0  0  0  0
   -3.9699   27.2342    4.6375 C   0  0  0  0  0  0  0  0  0  0  0  0
  1  2  1  0
  2  3  1  0
  3  4  1  0
  4  5  1  0
  5  6  1  0
  6  7  2  0
  7  8  1  0
  8  9  2  0
  9 10  1  0
 10 11  2  0
 11 12  1  0
 12 13  1  0
 13 14  1  0
 13 15  2  0
  7 16  1  0
 16  3  1  0
 11  6  1  0
M  END
>  <Energy>  (532) 
20.167481977559834

>  <Energy_Delta>  (532) 
0

>  <std_smi>  (532) 
CCN1CCc2c(cccc2NC(C)=O)C1

>  <enum_smi>  (532) 
CCN1CCc2c(cccc2NC(C)=O)C1

>  <enum_code>  (532) 
B

>  <o3da_score>  (532) 
73.000015244679744

>  <o3da_score_rel>  (532) 
0.29062366729043149

>  <o3da_align>  (532) 
0.36538565336626189

>  <RMSD>  (532) 
5.8606371165987262e-05

>  <CONVERGED>  (532) 
0

>  <ENERGY>  (532) 
20.167481977188142

$$$$
159e9a67-9ddd-4f06-8bc8-f63c27ed1469
     RDKit          3D

 16 17  0  0  0  0  0  0  0  0999 V2000
   -6.2338   28.5412    6.6331 C   0  0  0  0  0  0  0  0  0  0  0  0
   -5.2305   27.5195    6.1084 C   0  0  0  0  0  0  0  0  0  0  0  0
   -4.6095   27.9204    4.8364 N   0  0  0  0  0  0  0  0  0  0  0  0
   -3.8087   26.8172    4.2913 C   0  0  0  0  0  0  0  0  0  0  0  0
   -3.3401   27.1422    2.8679 C   0  0  0  0  0  0  0  0  0  0  0  0
   -2.7054   28.5099    2.7338 C   0  0  0  0  0  0  0  0  0  0  0  0
   -2.9303   29.4490    3.7664 C   0  0  0  0  0  0  0  0  0  0  0  0
   -2.3466   30.7207    3.6863 C   0  0  0  0  0  0  0  0  0  0  0  0
   -1.5739   31.0706    2.5861 C   0  0  0  0  0  0  0  0  0  0  0  0
   -1.3798   30.1581    1.5489 C   0  0  0  0  0  0  0  0  0  0  0  0
   -1.9456   28.8795    1.5973 C   0  0  0  0  0  0  0  0  0  0  0  0
   -1.7960   27.9510    0.5385 N   0  0  0  0  0  0  0  0  0  0  0  0
   -1.0751   28.1001   -0.6336 C   0  0  0  0  0  0  0  0  0  0  0  0
   -1.2009   26.8896   -1.5257 C   0  0  0  0  0  0  0  0  0  0  0  0
   -0.4053   29.0652   -0.9814 O   0  0  0  0  0  0  0  0  0  0  0  0
   -3.7460   29.1044    4.9987 C   0  0  0  0  0  0  0  0  0  0  0  0
  1  2  1  0
  2  3  1  0
  3  4  1  0
  4  5  1  0
  5  6  1  0
  6  7  2  0
  7  8  1  0
  8  9  2  0
  9 10  1  0
 10 11  2  0
 11 12  1  0
 12 13  1  0
 13 14  1  0
 13 15  2  0
  7 16  1  0
 16  3  1  0
 11  6  1  0
M  END
>  <Energy>  (533) 
20.167481978643139

>  <Energy_Delta>  (533) 
1.0833041130808851e-09

>  <std_smi>  (533) 
CCN1CCc2c(cccc2NC(C)=O)C1

>  <enum_smi>  (533) 
CCN1CCc2c(cccc2NC(C)=O)C1

>  <enum_code>  (533) 
B

>  <o3da_score>  (533) 
67.151131438477975

>  <o3da_score_rel>  (533) 
0.26733841103923012

>  <o3da_align>  (533) 
0.33276965146511267

>  <RMSD>  (533) 
0.017443725047365088

>  <CONVERGED>  (533) 
0

>  <ENERGY>  (533) 
20.18394218440233

$$$$
159e9a67-9ddd-4f06-8bc8-f63c27ed1469
     RDKit          3D

 16 17  0  0  0  0  0  0  0  0999 V2000
    0.4103   31.8269    0.5444 C   0  0  0  0  0  0  0  0  0  0  0  0
   -0.6750   30.7682    0.3808 C   0  0  0  0  0  0  0  0  0  0  0  0
   -1.2468   30.3381    1.6656 N   0  0  0  0  0  0  0  0  0  0  0  0
   -2.1015   31.3661    2.2706 C   0  0  0  0  0  0  0  0  0  0  0  0
   -2.5217   30.9503    3.6875 C   0  0  0  0  0  0  0  0  0  0  0  0
   -3.0471   29.5336    3.7836 C   0  0  0  0  0  0  0  0  0  0  0  0
   -2.7854   28.6546    2.7078 C   0  0  0  0  0  0  0  0  0  0  0  0
   -3.2653   27.3390    2.7537 C   0  0  0  0  0  0  0  0  0  0  0  0
   -3.9705   26.8877    3.8624 C   0  0  0  0  0  0  0  0  0  0  0  0
   -4.2008   27.7425    4.9407 C   0  0  0  0  0  0  0  0  0  0  0  0
   -3.7395   29.0633    4.9259 C   0  0  0  0  0  0  0  0  0  0  0  0
   -3.9255   29.9365    6.0251 N   0  0  0  0  0  0  0  0  0  0  0  0
   -4.6121   29.6935    7.2018 C   0  0  0  0  0  0  0  0  0  0  0  0
   -4.5505   30.8707    8.1441 C   0  0  0  0  0  0  0  0  0  0  0  0
   -5.2428   28.6871    7.5033 O   0  0  0  0  0  0  0  0  0  0  0  0
   -2.0474   29.1145    1.4667 C   0  0  0  0  0  0  0  0  0  0  0  0
  1  2  1  0
  2  3  1  0
  3  4  1  0
  4  5  1  0
  5  6  1  0
  6  7  2  0
  7  8  1  0
  8  9  2  0
  9 10  1  0
 10 11  2  0
 11 12  1  0
 12 13  1  0
 13 14  1  0
 13 15  2  0
  7 16  1  0
 16  3  1  0
 11  6  1  0
M  END
>  <Energy>  (534) 
20.317550243776694

>  <Energy_Delta>  (534) 
0.15006826621685931

>  <std_smi>  (534) 
CCN1CCc2c(cccc2NC(C)=O)C1

>  <enum_smi>  (534) 
CCN1CCc2c(cccc2NC(C)=O)C1

>  <enum_code>  (534) 
B

>  <o3da_score>  (534) 
70.880005801321531

>  <o3da_score_rel>  (534) 
0.2821836016677875

>  <o3da_align>  (534) 
0.47078258231440312

>  <RMSD>  (534) 
6.7865169047001632e-05

>  <CONVERGED>  (534) 
0

>  <ENERGY>  (534) 
20.317550243413752

$$$$
159e9a67-9ddd-4f06-8bc8-f63c27ed1469
     RDKit          3D

 16 17  0  0  0  0  0  0  0  0999 V2000
   -6.5561   29.5902    5.0880 C   0  0  0  0  0  0  0  0  0  0  0  0
   -5.9521   28.3374    4.4624 C   0  0  0  0  0  0  0  0  0  0  0  0
   -4.6907   27.9349    5.1022 N   0  0  0  0  0  0  0  0  0  0  0  0
   -3.5828   28.8398    4.7749 C   0  0  0  0  0  0  0  0  0  0  0  0
   -2.3408   28.4923    5.6076 C   0  0  0  0  0  0  0  0  0  0  0  0
   -1.9931   27.0186    5.6104 C   0  0  0  0  0  0  0  0  0  0  0  0
   -2.9793   26.1038    5.1756 C   0  0  0  0  0  0  0  0  0  0  0  0
   -2.6919   24.7325    5.1517 C   0  0  0  0  0  0  0  0  0  0  0  0
   -1.4547   24.2675    5.5796 C   0  0  0  0  0  0  0  0  0  0  0  0
   -0.4914   25.1649    6.0417 C   0  0  0  0  0  0  0  0  0  0  0  0
   -0.7442   26.5405    6.0762 C   0  0  0  0  0  0  0  0  0  0  0  0
    0.2028   27.4664    6.5772 N   0  0  0  0  0  0  0  0  0  0  0  0
    1.4800   27.2133    7.0467 C   0  0  0  0  0  0  0  0  0  0  0  0
    2.1583   28.4716    7.5300 C   0  0  0  0  0  0  0  0  0  0  0  0
    2.0535   26.1323    7.1069 O   0  0  0  0  0  0  0  0  0  0  0  0
   -4.3299   26.5705    4.6712 C   0  0  0  0  0  0  0  0  0  0  0  0
  1  2  1  0
  2  3  1  0
  3  4  1  0
  4  5  1  0
  5  6  1  0
  6  7  2  0
  7  8  1  0
  8  9  2  0
  9 10  1  0
 10 11  2  0
 11 12  1  0
 12 13  1  0
 13 14  1  0
 13 15  2  0
  7 16  1  0
 16  3  1  0
 11  6  1  0
M  END
>  <Energy>  (535) 
20.317550243842327

>  <Energy_Delta>  (535) 
0.15006826628249215

>  <std_smi>  (535) 
CCN1CCc2c(cccc2NC(C)=O)C1

>  <enum_smi>  (535) 
CCN1CCc2c(cccc2NC(C)=O)C1

>  <enum_code>  (535) 
B

>  <o3da_score>  (535) 
65.651752317578271

>  <o3da_score_rel>  (535) 
0.26136916490532147

>  <o3da_align>  (535) 
0.18223461482164544

>  <RMSD>  (535) 
0.017326730727119648

>  <CONVERGED>  (535) 
0

>  <ENERGY>  (535) 
20.333969843970838

$$$$
159e9a67-9ddd-4f06-8bc8-f63c27ed1469
     RDKit          3D

 16 17  0  0  0  0  0  0  0  0999 V2000
    0.4103   31.8270    0.5445 C   0  0  0  0  0  0  0  0  0  0  0  0
   -0.6750   30.7682    0.3809 C   0  0  0  0  0  0  0  0  0  0  0  0
   -1.2468   30.3381    1.6657 N   0  0  0  0  0  0  0  0  0  0  0  0
   -2.1016   31.3661    2.2706 C   0  0  0  0  0  0  0  0  0  0  0  0
   -2.5218   30.9503    3.6874 C   0  0  0  0  0  0  0  0  0  0  0  0
   -3.0471   29.5336    3.7836 C   0  0  0  0  0  0  0  0  0  0  0  0
   -2.7854   28.6546    2.7078 C   0  0  0  0  0  0  0  0  0  0  0  0
   -3.2653   27.3389    2.7537 C   0  0  0  0  0  0  0  0  0  0  0  0
   -3.9704   26.8876    3.8624 C   0  0  0  0  0  0  0  0  0  0  0  0
   -4.2008   27.7425    4.9407 C   0  0  0  0  0  0  0  0  0  0  0  0
   -3.7395   29.0632    4.9258 C   0  0  0  0  0  0  0  0  0  0  0  0
   -3.9256   29.9365    6.0251 N   0  0  0  0  0  0  0  0  0  0  0  0
   -4.6121   29.6935    7.2018 C   0  0  0  0  0  0  0  0  0  0  0  0
   -4.5506   30.8707    8.1441 C   0  0  0  0  0  0  0  0  0  0  0  0
   -5.2429   28.6870    7.5033 O   0  0  0  0  0  0  0  0  0  0  0  0
   -2.0473   29.1145    1.4667 C   0  0  0  0  0  0  0  0  0  0  0  0
  1  2  1  0
  2  3  1  0
  3  4  1  0
  4  5  1  0
  5  6  1  0
  6  7  2  0
  7  8  1  0
  8  9  2  0
  9 10  1  0
 10 11  2  0
 11 12  1  0
 12 13  1  0
 13 14  1  0
 13 15  2  0
  7 16  1  0
 16  3  1  0
 11  6  1  0
M  END
>  <Energy>  (536) 
20.317550244185597

>  <Energy_Delta>  (536) 
0.15006826662576245

>  <std_smi>  (536) 
CCN1CCc2c(cccc2NC(C)=O)C1

>  <enum_smi>  (536) 
CCN1CCc2c(cccc2NC(C)=O)C1

>  <enum_code>  (536) 
B

>  <o3da_score>  (536) 
70.879918782014002

>  <o3da_score_rel>  (536) 
0.28218325523128068

>  <o3da_align>  (536) 
0.47078100705992265

>  <RMSD>  (536) 
7.784065383878124e-05

>  <CONVERGED>  (536) 
0

>  <ENERGY>  (536) 
20.317550243689503

$$$$
159e9a67-9ddd-4f06-8bc8-f63c27ed1469
     RDKit          3D

 16 17  0  0  0  0  0  0  0  0999 V2000
   -6.5561   29.5901    5.0880 C   0  0  0  0  0  0  0  0  0  0  0  0
   -5.9522   28.3374    4.4624 C   0  0  0  0  0  0  0  0  0  0  0  0
   -4.6907   27.9349    5.1022 N   0  0  0  0  0  0  0  0  0  0  0  0
   -3.5828   28.8398    4.7749 C   0  0  0  0  0  0  0  0  0  0  0  0
   -2.3408   28.4923    5.6076 C   0  0  0  0  0  0  0  0  0  0  0  0
   -1.9931   27.0186    5.6103 C   0  0  0  0  0  0  0  0  0  0  0  0
   -2.9792   26.1037    5.1756 C   0  0  0  0  0  0  0  0  0  0  0  0
   -2.6918   24.7325    5.1517 C   0  0  0  0  0  0  0  0  0  0  0  0
   -1.4546   24.2675    5.5796 C   0  0  0  0  0  0  0  0  0  0  0  0
   -0.4914   25.1649    6.0416 C   0  0  0  0  0  0  0  0  0  0  0  0
   -0.7442   26.5405    6.0761 C   0  0  0  0  0  0  0  0  0  0  0  0
    0.2029   27.4665    6.5771 N   0  0  0  0  0  0  0  0  0  0  0  0
    1.4801   27.2133    7.0465 C   0  0  0  0  0  0  0  0  0  0  0  0
    2.1583   28.4716    7.5298 C   0  0  0  0  0  0  0  0  0  0  0  0
    2.0536   26.1324    7.1068 O   0  0  0  0  0  0  0  0  0  0  0  0
   -4.3299   26.5705    4.6712 C   0  0  0  0  0  0  0  0  0  0  0  0
  1  2  1  0
  2  3  1  0
  3  4  1  0
  4  5  1  0
  5  6  1  0
  6  7  2  0
  7  8  1  0
  8  9  2  0
  9 10  1  0
 10 11  2  0
 11 12  1  0
 12 13  1  0
 13 14  1  0
 13 15  2  0
  7 16  1  0
 16  3  1  0
 11  6  1  0
M  END
>  <Energy>  (537) 
20.317550247925571

>  <Energy_Delta>  (537) 
0.15006827036573611

>  <std_smi>  (537) 
CCN1CCc2c(cccc2NC(C)=O)C1

>  <enum_smi>  (537) 
CCN1CCc2c(cccc2NC(C)=O)C1

>  <enum_code>  (537) 
B

>  <o3da_score>  (537) 
65.652129843666941

>  <o3da_score_rel>  (537) 
0.26137066789153346

>  <o3da_align>  (537) 
0.1822077398649756

>  <RMSD>  (537) 
0.017322384324014364

>  <CONVERGED>  (537) 
0

>  <ENERGY>  (537) 
20.333969843976234

$$$$
159e9a67-9ddd-4f06-8bc8-f63c27ed1469
     RDKit          3D

 16 17  0  0  0  0  0  0  0  0999 V2000
   -4.6029   25.9019    6.2797 C   0  0  0  0  0  0  0  0  0  0  0  0
   -5.3804   26.8832    5.4067 C   0  0  0  0  0  0  0  0  0  0  0  0
   -4.5968   27.8606    4.6448 N   0  0  0  0  0  0  0  0  0  0  0  0
   -3.7708   28.7280    5.4834 C   0  0  0  0  0  0  0  0  0  0  0  0
   -3.2585   29.9203    4.6635 C   0  0  0  0  0  0  0  0  0  0  0  0
   -2.6704   29.5369    3.3197 C   0  0  0  0  0  0  0  0  0  0  0  0
   -2.9504   28.2454    2.8132 C   0  0  0  0  0  0  0  0  0  0  0  0
   -2.4160   27.8520    1.5792 C   0  0  0  0  0  0  0  0  0  0  0  0
   -1.6374   28.7332    0.8396 C   0  0  0  0  0  0  0  0  0  0  0  0
   -1.3871   30.0191    1.3199 C   0  0  0  0  0  0  0  0  0  0  0  0
   -1.9027   30.4440    2.5493 C   0  0  0  0  0  0  0  0  0  0  0  0
   -1.6943   31.7566    3.0384 N   0  0  0  0  0  0  0  0  0  0  0  0
   -0.9579   32.7768    2.4616 C   0  0  0  0  0  0  0  0  0  0  0  0
   -1.0145   34.0413    3.2831 C   0  0  0  0  0  0  0  0  0  0  0  0
   -0.3240   32.7409    1.4138 O   0  0  0  0  0  0  0  0  0  0  0  0
   -3.7682   27.2408    3.6030 C   0  0  0  0  0  0  0  0  0  0  0  0
  1  2  1  0
  2  3  1  0
  3  4  1  0
  4  5  1  0
  5  6  1  0
  6  7  2  0
  7  8  1  0
  8  9  2  0
  9 10  1  0
 10 11  2  0
 11 12  1  0
 12 13  1  0
 13 14  1  0
 13 15  2  0
  7 16  1  0
 16  3  1  0
 11  6  1  0
M  END
>  <Energy>  (538) 
21.716303185289352

>  <Energy_Delta>  (538) 
1.5488212077295174

>  <std_smi>  (538) 
CCN1CCc2c(cccc2NC(C)=O)C1

>  <enum_smi>  (538) 
CCN1CCc2c(cccc2NC(C)=O)C1

>  <enum_code>  (538) 
B

>  <o3da_score>  (538) 
75.665130171455445

>  <o3da_score_rel>  (538) 
0.30123387704414073

>  <o3da_align>  (538) 
0.52184160721940409

>  <RMSD>  (538) 
0.017532885280387701

>  <CONVERGED>  (538) 
0

>  <ENERGY>  (538) 
21.732092836221014

$$$$
159e9a67-9ddd-4f06-8bc8-f63c27ed1469
     RDKit          3D

 16 17  0  0  0  0  0  0  0  0999 V2000
   -4.5755   27.1014    7.2403 C   0  0  0  0  0  0  0  0  0  0  0  0
   -5.3679   27.5898    6.0308 C   0  0  0  0  0  0  0  0  0  0  0  0
   -4.6027   27.9276    4.8266 N   0  0  0  0  0  0  0  0  0  0  0  0
   -3.8236   26.8093    4.2971 C   0  0  0  0  0  0  0  0  0  0  0  0
   -3.3355   27.1329    2.8782 C   0  0  0  0  0  0  0  0  0  0  0  0
   -2.7077   28.5061    2.7406 C   0  0  0  0  0  0  0  0  0  0  0  0
   -2.9335   29.4489    3.7717 C   0  0  0  0  0  0  0  0  0  0  0  0
   -2.3613   30.7248    3.6840 C   0  0  0  0  0  0  0  0  0  0  0  0
   -1.5982   31.0764    2.5777 C   0  0  0  0  0  0  0  0  0  0  0  0
   -1.4014   30.1608    1.5433 C   0  0  0  0  0  0  0  0  0  0  0  0
   -1.9558   28.8774    1.5994 C   0  0  0  0  0  0  0  0  0  0  0  0
   -1.8019   27.9455    0.5442 N   0  0  0  0  0  0  0  0  0  0  0  0
   -1.0890   28.0966   -0.6325 C   0  0  0  0  0  0  0  0  0  0  0  0
   -1.2049   26.8798   -1.5173 C   0  0  0  0  0  0  0  0  0  0  0  0
   -0.4332   29.0679   -0.9896 O   0  0  0  0  0  0  0  0  0  0  0  0
   -3.7327   29.0959    5.0120 C   0  0  0  0  0  0  0  0  0  0  0  0
  1  2  1  0
  2  3  1  0
  3  4  1  0
  4  5  1  0
  5  6  1  0
  6  7  2  0
  7  8  1  0
  8  9  2  0
  9 10  1  0
 10 11  2  0
 11 12  1  0
 12 13  1  0
 13 14  1  0
 13 15  2  0
  7 16  1  0
 16  3  1  0
 11  6  1  0
M  END
>  <Energy>  (539) 
21.732092838293283

>  <Energy_Delta>  (539) 
1.564610860733449

>  <std_smi>  (539) 
CCN1CCc2c(cccc2NC(C)=O)C1

>  <enum_smi>  (539) 
CCN1CCc2c(cccc2NC(C)=O)C1

>  <enum_code>  (539) 
B

>  <o3da_score>  (539) 
67.20516559895438

>  <o3da_score_rel>  (539) 
0.26755352888302752

>  <o3da_align>  (539) 
0.32984424971901011

>  <RMSD>  (539) 
6.6198840878486177e-05

>  <CONVERGED>  (539) 
0

>  <ENERGY>  (539) 
21.732092836187114

$$$$
159e9a67-9ddd-4f06-8bc8-f63c27ed1469
     RDKit          3D

 16 17  0  0  0  0  0  0  0  0999 V2000
   -2.0857   30.4174    3.8046 C   0  0  0  0  0  0  0  0  0  0  0  0
   -3.0875   29.2691    3.7407 C   0  0  0  0  0  0  0  0  0  0  0  0
   -3.7458   29.0104    5.0293 N   0  0  0  0  0  0  0  0  0  0  0  0
   -2.8449   28.5721    6.1014 C   0  0  0  0  0  0  0  0  0  0  0  0
   -2.1663   27.2198    5.8408 C   0  0  0  0  0  0  0  0  0  0  0  0
   -3.0915   26.1671    5.2615 C   0  0  0  0  0  0  0  0  0  0  0  0
   -4.3576   26.5777    4.7783 C   0  0  0  0  0  0  0  0  0  0  0  0
   -5.2348   25.6303    4.2354 C   0  0  0  0  0  0  0  0  0  0  0  0
   -4.8564   24.2970    4.1428 C   0  0  0  0  0  0  0  0  0  0  0  0
   -3.5985   23.8929    4.5915 C   0  0  0  0  0  0  0  0  0  0  0  0
   -2.7003   24.8106    5.1470 C   0  0  0  0  0  0  0  0  0  0  0  0
   -1.4091   24.4277    5.5854 N   0  0  0  0  0  0  0  0  0  0  0  0
   -0.8470   23.1627    5.5838 C   0  0  0  0  0  0  0  0  0  0  0  0
    0.5616   23.1723    6.1253 C   0  0  0  0  0  0  0  0  0  0  0  0
   -1.3706   22.1138    5.2277 O   0  0  0  0  0  0  0  0  0  0  0  0
   -4.8245   28.0159    4.8916 C   0  0  0  0  0  0  0  0  0  0  0  0
  1  2  1  0
  2  3  1  0
  3  4  1  0
  4  5  1  0
  5  6  1  0
  6  7  2  0
  7  8  1  0
  8  9  2  0
  9 10  1  0
 10 11  2  0
 11 12  1  0
 12 13  1  0
 13 14  1  0
 13 15  2  0
  7 16  1  0
 16  3  1  0
 11  6  1  0
M  END
>  <Energy>  (540) 
21.968169356264941

>  <Energy_Delta>  (540) 
1.8006873787051063

>  <std_smi>  (540) 
CCN1CCc2c(cccc2NC(C)=O)C1

>  <enum_smi>  (540) 
CCN1CCc2c(cccc2NC(C)=O)C1

>  <enum_code>  (540) 
B

>  <o3da_score>  (540) 
74.399112837665086

>  <o3da_score_rel>  (540) 
0.29619367809122032

>  <o3da_align>  (540) 
0.20118752784567442

>  <RMSD>  (540) 
6.3694807409502298e-05

>  <CONVERGED>  (540) 
0

>  <ENERGY>  (540) 
21.968169354094108

$$$$
159e9a67-9ddd-4f06-8bc8-f63c27ed1469
     RDKit          3D

 16 17  0  0  0  0  0  0  0  0999 V2000
   -4.1887   31.8338    6.9172 C   0  0  0  0  0  0  0  0  0  0  0  0
   -5.1286   30.8482    6.2305 C   0  0  0  0  0  0  0  0  0  0  0  0
   -4.9201   30.7750    4.7772 N   0  0  0  0  0  0  0  0  0  0  0  0
   -3.6017   30.2751    4.3711 C   0  0  0  0  0  0  0  0  0  0  0  0
   -3.3248   28.8220    4.7818 C   0  0  0  0  0  0  0  0  0  0  0  0
   -4.4989   27.8862    4.5679 C   0  0  0  0  0  0  0  0  0  0  0  0
   -5.7661   28.4517    4.2855 C   0  0  0  0  0  0  0  0  0  0  0  0
   -6.8713   27.6150    4.0848 C   0  0  0  0  0  0  0  0  0  0  0  0
   -6.7349   26.2366    4.1897 C   0  0  0  0  0  0  0  0  0  0  0  0
   -5.4941   25.6767    4.4960 C   0  0  0  0  0  0  0  0  0  0  0  0
   -4.3675   26.4818    4.6962 C   0  0  0  0  0  0  0  0  0  0  0  0
   -3.1038   25.9369    5.0310 N   0  0  0  0  0  0  0  0  0  0  0  0
   -2.7660   24.6054    5.2031 C   0  0  0  0  0  0  0  0  0  0  0  0
   -1.3116   24.4373    5.5693 C   0  0  0  0  0  0  0  0  0  0  0  0
   -3.5017   23.6303    5.1087 O   0  0  0  0  0  0  0  0  0  0  0  0
   -5.9523   29.9482    4.1273 C   0  0  0  0  0  0  0  0  0  0  0  0
  1  2  1  0
  2  3  1  0
  3  4  1  0
  4  5  1  0
  5  6  1  0
  6  7  2  0
  7  8  1  0
  8  9  2  0
  9 10  1  0
 10 11  2  0
 11 12  1  0
 12 13  1  0
 13 14  1  0
 13 15  2  0
  7 16  1  0
 16  3  1  0
 11  6  1  0
M  END
>  <Energy>  (541) 
21.970295047859004

>  <Energy_Delta>  (541) 
1.8028130702991696

>  <std_smi>  (541) 
CCN1CCc2c(cccc2NC(C)=O)C1

>  <enum_smi>  (541) 
CCN1CCc2c(cccc2NC(C)=O)C1

>  <enum_code>  (541) 
B

>  <o3da_score>  (541) 
66.413363102442077

>  <o3da_score_rel>  (541) 
0.26440124809877252

>  <o3da_align>  (541) 
0.51348600652176157

>  <RMSD>  (541) 
5.8845453436630958e-05

>  <CONVERGED>  (541) 
0

>  <ENERGY>  (541) 
21.970295047049344

$$$$
159e9a67-9ddd-4f06-8bc8-f63c27ed1469
     RDKit          3D

 16 17  0  0  0  0  0  0  0  0999 V2000
   -2.2203   30.4489    3.5761 C   0  0  0  0  0  0  0  0  0  0  0  0
   -3.1005   29.2095    3.7019 C   0  0  0  0  0  0  0  0  0  0  0  0
   -3.5794   29.0023    5.0757 N   0  0  0  0  0  0  0  0  0  0  0  0
   -4.7122   28.0694    5.1357 C   0  0  0  0  0  0  0  0  0  0  0  0
   -4.3696   26.6329    4.7147 C   0  0  0  0  0  0  0  0  0  0  0  0
   -3.0472   26.1280    5.2575 C   0  0  0  0  0  0  0  0  0  0  0  0
   -2.1597   27.0642    5.8406 C   0  0  0  0  0  0  0  0  0  0  0  0
   -0.9277   26.6312    6.3474 C   0  0  0  0  0  0  0  0  0  0  0  0
   -0.5621   25.2944    6.2539 C   0  0  0  0  0  0  0  0  0  0  0  0
   -1.4219   24.3733    5.6546 C   0  0  0  0  0  0  0  0  0  0  0  0
   -2.6634   24.7692    5.1452 C   0  0  0  0  0  0  0  0  0  0  0  0
   -3.5408   23.8567    4.5098 N   0  0  0  0  0  0  0  0  0  0  0  0
   -3.3677   22.4964    4.3207 C   0  0  0  0  0  0  0  0  0  0  0  0
   -4.5320   21.8777    3.5865 C   0  0  0  0  0  0  0  0  0  0  0  0
   -2.4282   21.8044    4.6945 O   0  0  0  0  0  0  0  0  0  0  0  0
   -2.5341   28.5253    5.9964 C   0  0  0  0  0  0  0  0  0  0  0  0
  1  2  1  0
  2  3  1  0
  3  4  1  0
  4  5  1  0
  5  6  1  0
  6  7  2  0
  7  8  1  0
  8  9  2  0
  9 10  1  0
 10 11  2  0
 11 12  1  0
 12 13  1  0
 13 14  1  0
 13 15  2  0
  7 16  1  0
 16  3  1  0
 11  6  1  0
M  END
>  <Energy>  (542) 
22.185767307494032

>  <Energy_Delta>  (542) 
2.0182853299341978

>  <std_smi>  (542) 
CCN1CCc2c(cccc2NC(C)=O)C1

>  <enum_smi>  (542) 
CCN1CCc2c(cccc2NC(C)=O)C1

>  <enum_code>  (542) 
B

>  <o3da_score>  (542) 
72.697069460094639

>  <o3da_score_rel>  (542) 
0.28941759610522422

>  <o3da_align>  (542) 
0.27486155432689574

>  <RMSD>  (542) 
6.0622114085447066e-05

>  <CONVERGED>  (542) 
0

>  <ENERGY>  (542) 
22.185767304910712

$$$$
159e9a67-9ddd-4f06-8bc8-f63c27ed1469
     RDKit          3D

 16 17  0  0  0  0  0  0  0  0999 V2000
   -7.0651   27.4274    4.2990 C   0  0  0  0  0  0  0  0  0  0  0  0
   -5.9152   28.4254    4.3911 C   0  0  0  0  0  0  0  0  0  0  0  0
   -4.7258   27.8485    5.0331 N   0  0  0  0  0  0  0  0  0  0  0  0
   -3.7758   28.8786    5.4730 C   0  0  0  0  0  0  0  0  0  0  0  0
   -3.1420   29.6827    4.3285 C   0  0  0  0  0  0  0  0  0  0  0  0
   -2.7255   28.8414    3.1381 C   0  0  0  0  0  0  0  0  0  0  0  0
   -3.1835   27.5037    3.0685 C   0  0  0  0  0  0  0  0  0  0  0  0
   -2.8207   26.7008    1.9795 C   0  0  0  0  0  0  0  0  0  0  0  0
   -2.0384   27.2200    0.9558 C   0  0  0  0  0  0  0  0  0  0  0  0
   -1.6083   28.5463    1.0067 C   0  0  0  0  0  0  0  0  0  0  0  0
   -1.9463   29.3748    2.0822 C   0  0  0  0  0  0  0  0  0  0  0  0
   -1.5409   30.7305    2.1434 N   0  0  0  0  0  0  0  0  0  0  0  0
   -0.7844   31.4382    1.2250 C   0  0  0  0  0  0  0  0  0  0  0  0
   -0.5783   32.8710    1.6517 C   0  0  0  0  0  0  0  0  0  0  0  0
   -0.3221   31.0306    0.1662 O   0  0  0  0  0  0  0  0  0  0  0  0
   -4.0075   26.8859    4.1815 C   0  0  0  0  0  0  0  0  0  0  0  0
  1  2  1  0
  2  3  1  0
  3  4  1  0
  4  5  1  0
  5  6  1  0
  6  7  2  0
  7  8  1  0
  8  9  2  0
  9 10  1  0
 10 11  2  0
 11 12  1  0
 12 13  1  0
 13 14  1  0
 13 15  2  0
  7 16  1  0
 16  3  1  0
 11  6  1  0
M  END
>  <Energy>  (543) 
22.185767310093667

>  <Energy_Delta>  (543) 
2.0182853325338321

>  <std_smi>  (543) 
CCN1CCc2c(cccc2NC(C)=O)C1

>  <enum_smi>  (543) 
CCN1CCc2c(cccc2NC(C)=O)C1

>  <enum_code>  (543) 
B

>  <o3da_score>  (543) 
74.396815261042534

>  <o3da_score_rel>  (543) 
0.29618453110485754

>  <o3da_align>  (543) 
0.56084900132154991

>  <RMSD>  (543) 
0.019427138951655813

>  <CONVERGED>  (543) 
0

>  <ENERGY>  (543) 
22.187890799957632

$$$$
159e9a67-9ddd-4f06-8bc8-f63c27ed1469
     RDKit          3D

 16 17  0  0  0  0  0  0  0  0999 V2000
   -2.2251   30.4561    3.5851 C   0  0  0  0  0  0  0  0  0  0  0  0
   -3.1032   29.2148    3.7069 C   0  0  0  0  0  0  0  0  0  0  0  0
   -3.5814   29.0021    5.0802 N   0  0  0  0  0  0  0  0  0  0  0  0
   -4.7126   28.0671    5.1373 C   0  0  0  0  0  0  0  0  0  0  0  0
   -4.3678   26.6326    4.7113 C   0  0  0  0  0  0  0  0  0  0  0  0
   -3.0444   26.1281    5.2519 C   0  0  0  0  0  0  0  0  0  0  0  0
   -2.1582   27.0637    5.8380 C   0  0  0  0  0  0  0  0  0  0  0  0
   -0.9253   26.6310    6.3428 C   0  0  0  0  0  0  0  0  0  0  0  0
   -0.5576   25.2951    6.2447 C   0  0  0  0  0  0  0  0  0  0  0  0
   -1.4160   24.3747    5.6424 C   0  0  0  0  0  0  0  0  0  0  0  0
   -2.6583   24.7703    5.1348 C   0  0  0  0  0  0  0  0  0  0  0  0
   -3.5344   23.8586    4.4965 N   0  0  0  0  0  0  0  0  0  0  0  0
   -3.3591   22.4991    4.3027 C   0  0  0  0  0  0  0  0  0  0  0  0
   -4.5227   21.8811    3.5667 C   0  0  0  0  0  0  0  0  0  0  0  0
   -2.4184   21.8075    4.6738 O   0  0  0  0  0  0  0  0  0  0  0  0
   -2.5350   28.5236    5.9988 C   0  0  0  0  0  0  0  0  0  0  0  0
  1  2  1  0
  2  3  1  0
  3  4  1  0
  4  5  1  0
  5  6  1  0
  6  7  2  0
  7  8  1  0
  8  9  2  0
  9 10  1  0
 10 11  2  0
 11 12  1  0
 12 13  1  0
 13 14  1  0
 13 15  2  0
  7 16  1  0
 16  3  1  0
 11  6  1  0
M  END
>  <Energy>  (544) 
22.187890801985457

>  <Energy_Delta>  (544) 
2.0204088244256226

>  <std_smi>  (544) 
CCN1CCc2c(cccc2NC(C)=O)C1

>  <enum_smi>  (544) 
CCN1CCc2c(cccc2NC(C)=O)C1

>  <enum_code>  (544) 
B

>  <o3da_score>  (544) 
72.66685369366192

>  <o3da_score_rel>  (544) 
0.28929730274882925

>  <o3da_align>  (544) 
0.27669649519330808

>  <RMSD>  (544) 
0.019425618242806524

>  <CONVERGED>  (544) 
0

>  <ENERGY>  (544) 
22.185767304778473

$$$$
159e9a67-9ddd-4f06-8bc8-f63c27ed1469
     RDKit          3D

 16 17  0  0  0  0  0  0  0  0999 V2000
   -7.0649   27.4199    4.7967 C   0  0  0  0  0  0  0  0  0  0  0  0
   -5.9666   28.4793    4.8012 C   0  0  0  0  0  0  0  0  0  0  0  0
   -4.6160   27.9054    4.7202 N   0  0  0  0  0  0  0  0  0  0  0  0
   -4.4078   27.1375    3.4794 C   0  0  0  0  0  0  0  0  0  0  0  0
   -2.9611   27.1153    2.9544 C   0  0  0  0  0  0  0  0  0  0  0  0
   -2.4964   28.5369    2.7264 C   0  0  0  0  0  0  0  0  0  0  0  0
   -2.8919   29.4545    3.7289 C   0  0  0  0  0  0  0  0  0  0  0  0
   -2.5631   30.8062    3.6134 C   0  0  0  0  0  0  0  0  0  0  0  0
   -1.8453   31.2469    2.5084 C   0  0  0  0  0  0  0  0  0  0  0  0
   -1.4276   30.3387    1.5306 C   0  0  0  0  0  0  0  0  0  0  0  0
   -1.7301   28.9751    1.6275 C   0  0  0  0  0  0  0  0  0  0  0  0
   -1.2754   28.0334    0.6751 N   0  0  0  0  0  0  0  0  0  0  0  0
   -0.5630   28.2725   -0.4875 C   0  0  0  0  0  0  0  0  0  0  0  0
   -0.2369   26.9949   -1.2215 C   0  0  0  0  0  0  0  0  0  0  0  0
   -0.2273   29.3578   -0.9466 O   0  0  0  0  0  0  0  0  0  0  0  0
   -3.5798   28.9225    4.9666 C   0  0  0  0  0  0  0  0  0  0  0  0
  1  2  1  0
  2  3  1  0
  3  4  1  0
  4  5  1  0
  5  6  1  0
  6  7  2  0
  7  8  1  0
  8  9  2  0
  9 10  1  0
 10 11  2  0
 11 12  1  0
 12 13  1  0
 13 14  1  0
 13 15  2  0
  7 16  1  0
 16  3  1  0
 11  6  1  0
M  END
>  <Energy>  (545) 
26.656413611876889

>  <Energy_Delta>  (545) 
6.4889316343170549

>  <std_smi>  (545) 
CCN1CCc2c(cccc2NC(C)=O)C1

>  <enum_smi>  (545) 
CCN1CCc2c(cccc2NC(C)=O)C1

>  <enum_code>  (545) 
B

>  <o3da_score>  (545) 
70.123840455563695

>  <o3da_score_rel>  (545) 
0.27917319755861719

>  <o3da_align>  (545) 
0.23550318461857411

>  <RMSD>  (545) 
6.1066813007921484e-05

>  <CONVERGED>  (545) 
0

>  <ENERGY>  (545) 
26.656413606491256

$$$$
5d9c0352-244e-4fcc-8032-785421745f4c
     RDKit          3D

 16 17  0  0  0  0  0  0  0  0999 V2000
   -1.1210   27.6152   -1.7256 C   0  0  0  0  0  0  0  0  0  0  0  0
   -0.8665   27.9766   -0.4670 C   0  0  0  0  0  0  0  0  0  0  0  0
    0.4186   28.3370   -0.1468 O   0  0  0  0  0  0  0  0  0  0  0  0
   -1.7729   27.9243    0.5598 N   0  0  0  0  0  0  0  0  0  0  0  0
   -1.9570   28.8735    1.5987 C   0  0  0  0  0  0  0  0  0  0  0  0
   -1.3838   30.1531    1.5469 C   0  0  0  0  0  0  0  0  0  0  0  0
   -1.5766   31.0720    2.5778 C   0  0  0  0  0  0  0  0  0  0  0  0
   -2.3501   30.7266    3.6809 C   0  0  0  0  0  0  0  0  0  0  0  0
   -2.9407   29.4580    3.7655 C   0  0  0  0  0  0  0  0  0  0  0  0
   -2.7230   28.5201    2.7337 C   0  0  0  0  0  0  0  0  0  0  0  0
   -3.3633   27.1547    2.8500 C   0  0  0  0  0  0  0  0  0  0  0  0
   -3.8082   26.8182    4.2775 C   0  0  0  0  0  0  0  0  0  0  0  0
   -4.6056   27.9166    4.8433 N   0  0  0  0  0  0  0  0  0  0  0  0
   -5.2058   27.5029    6.1210 C   0  0  0  0  0  0  0  0  0  0  0  0
   -6.2037   28.5172    6.6700 C   0  0  0  0  0  0  0  0  0  0  0  0
   -3.7480   29.1063    5.0008 C   0  0  0  0  0  0  0  0  0  0  0  0
  1  2  2  3
  2  3  1  0
  2  4  1  0
  4  5  1  0
  5  6  2  0
  6  7  1  0
  7  8  2  0
  8  9  1  0
  9 10  2  0
 10 11  1  0
 11 12  1  0
 12 13  1  0
 13 14  1  0
 14 15  1  0
 13 16  1  0
 10  5  1  0
 16  9  1  0
M  END
>  <Energy>  (546) 
-8.8731966570403582

>  <Energy_Delta>  (546) 
0

>  <std_smi>  (546) 
CCN1CCc2c(cccc2NC(C)=O)C1

>  <enum_smi>  (546) 
C=C(O)Nc1cccc2c1CCN(CC)C2

>  <enum_code>  (546) 
T

>  <parent_uuid>  (546) 
159e9a67-9ddd-4f06-8bc8-f63c27ed1469

>  <o3da_score>  (546) 
66.940829620382161

>  <o3da_score_rel>  (546) 
0.26650116894540321

>  <o3da_align>  (546) 
0.33795883607859178

>  <RMSD>  (546) 
7.294985177331648e-05

>  <CONVERGED>  (546) 
0

>  <ENERGY>  (546) 
-8.8731966589592304

$$$$
5d9c0352-244e-4fcc-8032-785421745f4c
     RDKit          3D

 16 17  0  0  0  0  0  0  0  0999 V2000
   -2.3743   21.4047    3.8833 C   0  0  0  0  0  0  0  0  0  0  0  0
   -3.4270   22.0535    4.3837 C   0  0  0  0  0  0  0  0  0  0  0  0
   -4.3996   21.3166    5.0122 O   0  0  0  0  0  0  0  0  0  0  0  0
   -3.5681   23.4167    4.4036 N   0  0  0  0  0  0  0  0  0  0  0  0
   -4.7470   24.1669    4.1557 C   0  0  0  0  0  0  0  0  0  0  0  0
   -5.8908   23.5876    3.5859 C   0  0  0  0  0  0  0  0  0  0  0  0
   -7.0398   24.3416    3.3498 C   0  0  0  0  0  0  0  0  0  0  0  0
   -7.0640   25.6927    3.6788 C   0  0  0  0  0  0  0  0  0  0  0  0
   -5.9387   26.3059    4.2473 C   0  0  0  0  0  0  0  0  0  0  0  0
   -4.7859   25.5355    4.5097 C   0  0  0  0  0  0  0  0  0  0  0  0
   -3.5866   26.2163    5.1309 C   0  0  0  0  0  0  0  0  0  0  0  0
   -3.9303   27.5550    5.7931 C   0  0  0  0  0  0  0  0  0  0  0  0
   -4.7056   28.4024    4.8747 N   0  0  0  0  0  0  0  0  0  0  0  0
   -4.8471   29.7570    5.4305 C   0  0  0  0  0  0  0  0  0  0  0  0
   -5.4681   30.7452    4.4488 C   0  0  0  0  0  0  0  0  0  0  0  0
   -6.0161   27.7732    4.6250 C   0  0  0  0  0  0  0  0  0  0  0  0
  1  2  2  3
  2  3  1  0
  2  4  1  0
  4  5  1  0
  5  6  2  0
  6  7  1  0
  7  8  2  0
  8  9  1  0
  9 10  2  0
 10 11  1  0
 11 12  1  0
 12 13  1  0
 13 14  1  0
 14 15  1  0
 13 16  1  0
 10  5  1  0
 16  9  1  0
M  END
>  <Energy>  (547) 
-8.8731966563696982

>  <Energy_Delta>  (547) 
6.7065997200188576e-10

>  <std_smi>  (547) 
CCN1CCc2c(cccc2NC(C)=O)C1

>  <enum_smi>  (547) 
C=C(O)Nc1cccc2c1CCN(CC)C2

>  <enum_code>  (547) 
T

>  <parent_uuid>  (547) 
159e9a67-9ddd-4f06-8bc8-f63c27ed1469

>  <o3da_score>  (547) 
67.598678144001354

>  <o3da_score_rel>  (547) 
0.26912015950061052

>  <o3da_align>  (547) 
0.53259919303511294

>  <RMSD>  (547) 
5.6889690597321452e-05

>  <CONVERGED>  (547) 
0

>  <ENERGY>  (547) 
-8.8731966590512048

$$$$
5d9c0352-244e-4fcc-8032-785421745f4c
     RDKit          3D

 16 17  0  0  0  0  0  0  0  0999 V2000
   -2.5497   23.8684    1.5339 C   0  0  0  0  0  0  0  0  0  0  0  0
   -3.2590   24.9644    1.8086 C   0  0  0  0  0  0  0  0  0  0  0  0
   -4.6270   24.8564    1.8386 O   0  0  0  0  0  0  0  0  0  0  0  0
   -2.7295   26.2182    1.9701 N   0  0  0  0  0  0  0  0  0  0  0  0
   -3.1061   27.1985    2.9247 C   0  0  0  0  0  0  0  0  0  0  0  0
   -3.9213   26.8909    4.0245 C   0  0  0  0  0  0  0  0  0  0  0  0
   -4.2807   27.8685    4.9518 C   0  0  0  0  0  0  0  0  0  0  0  0
   -3.8286   29.1745    4.7954 C   0  0  0  0  0  0  0  0  0  0  0  0
   -3.0102   29.5171    3.7103 C   0  0  0  0  0  0  0  0  0  0  0  0
   -2.6681   28.5327    2.7588 C   0  0  0  0  0  0  0  0  0  0  0  0
   -1.7882   28.9271    1.5929 C   0  0  0  0  0  0  0  0  0  0  0  0
   -1.7148   30.4432    1.3684 C   0  0  0  0  0  0  0  0  0  0  0  0
   -1.4261   31.1368    2.6318 N   0  0  0  0  0  0  0  0  0  0  0  0
   -1.1690   32.5714    2.4369 C   0  0  0  0  0  0  0  0  0  0  0  0
    0.1766   32.8439    1.7733 C   0  0  0  0  0  0  0  0  0  0  0  0
   -2.5702   30.9578    3.5475 C   0  0  0  0  0  0  0  0  0  0  0  0
  1  2  2  3
  2  3  1  0
  2  4  1  0
  4  5  1  0
  5  6  2  0
  6  7  1  0
  7  8  2  0
  8  9  1  0
  9 10  2  0
 10 11  1  0
 11 12  1  0
 12 13  1  0
 13 14  1  0
 14 15  1  0
 13 16  1  0
 10  5  1  0
 16  9  1  0
M  END
>  <Energy>  (548) 
-8.6961667569910652

>  <Energy_Delta>  (548) 
0.17702990004929298

>  <std_smi>  (548) 
CCN1CCc2c(cccc2NC(C)=O)C1

>  <enum_smi>  (548) 
C=C(O)Nc1cccc2c1CCN(CC)C2

>  <enum_code>  (548) 
T

>  <parent_uuid>  (548) 
159e9a67-9ddd-4f06-8bc8-f63c27ed1469

>  <o3da_score>  (548) 
75.847800424540026

>  <o3da_score_rel>  (548) 
0.30196111386290536

>  <o3da_align>  (548) 
0.42071179057798552

>  <RMSD>  (548) 
6.5425811526447934e-05

>  <CONVERGED>  (548) 
0

>  <ENERGY>  (548) 
-8.6961667571132537

$$$$
5d9c0352-244e-4fcc-8032-785421745f4c
     RDKit          3D

 16 17  0  0  0  0  0  0  0  0999 V2000
   -0.6367   32.6958    1.3264 C   0  0  0  0  0  0  0  0  0  0  0  0
   -1.2030   32.5150    2.5207 C   0  0  0  0  0  0  0  0  0  0  0  0
   -1.1161   33.5338    3.4364 O   0  0  0  0  0  0  0  0  0  0  0  0
   -1.9518   31.4226    2.8736 N   0  0  0  0  0  0  0  0  0  0  0  0
   -1.9455   30.7357    4.1154 C   0  0  0  0  0  0  0  0  0  0  0  0
   -0.9451   30.9460    5.0765 C   0  0  0  0  0  0  0  0  0  0  0  0
   -0.9564   30.2613    6.2913 C   0  0  0  0  0  0  0  0  0  0  0  0
   -1.9711   29.3506    6.5663 C   0  0  0  0  0  0  0  0  0  0  0  0
   -2.9851   29.1132    5.6283 C   0  0  0  0  0  0  0  0  0  0  0  0
   -2.9866   29.8253    4.4100 C   0  0  0  0  0  0  0  0  0  0  0  0
   -4.0944   29.5564    3.4152 C   0  0  0  0  0  0  0  0  0  0  0  0
   -5.3063   28.8428    4.0286 C   0  0  0  0  0  0  0  0  0  0  0  0
   -4.8741   27.6771    4.8127 N   0  0  0  0  0  0  0  0  0  0  0  0
   -6.0070   26.8591    5.2707 C   0  0  0  0  0  0  0  0  0  0  0  0
   -6.6650   26.0775    4.1386 C   0  0  0  0  0  0  0  0  0  0  0  0
   -4.0978   28.1459    5.9776 C   0  0  0  0  0  0  0  0  0  0  0  0
  1  2  2  3
  2  3  1  0
  2  4  1  0
  4  5  1  0
  5  6  2  0
  6  7  1  0
  7  8  2  0
  8  9  1  0
  9 10  2  0
 10 11  1  0
 11 12  1  0
 12 13  1  0
 13 14  1  0
 14 15  1  0
 13 16  1  0
 10  5  1  0
 16  9  1  0
M  END
>  <Energy>  (549) 
-8.6961667569036347

>  <Energy_Delta>  (549) 
0.17702990013672348

>  <std_smi>  (549) 
CCN1CCc2c(cccc2NC(C)=O)C1

>  <enum_smi>  (549) 
C=C(O)Nc1cccc2c1CCN(CC)C2

>  <enum_code>  (549) 
T

>  <parent_uuid>  (549) 
159e9a67-9ddd-4f06-8bc8-f63c27ed1469

>  <o3da_score>  (549) 
66.644692528762619

>  <o3da_score_rel>  (549) 
0.26532220415616686

>  <o3da_align>  (549) 
0.66393407865876342

>  <RMSD>  (549) 
6.6108618316331212e-05

>  <CONVERGED>  (549) 
0

>  <ENERGY>  (549) 
-8.6961667571265

$$$$
5d9c0352-244e-4fcc-8032-785421745f4c
     RDKit          3D

 16 17  0  0  0  0  0  0  0  0999 V2000
   -2.5497   23.8684    1.5339 C   0  0  0  0  0  0  0  0  0  0  0  0
   -3.2590   24.9644    1.8086 C   0  0  0  0  0  0  0  0  0  0  0  0
   -4.6270   24.8564    1.8385 O   0  0  0  0  0  0  0  0  0  0  0  0
   -2.7295   26.2182    1.9701 N   0  0  0  0  0  0  0  0  0  0  0  0
   -3.1061   27.1985    2.9247 C   0  0  0  0  0  0  0  0  0  0  0  0
   -3.9213   26.8909    4.0245 C   0  0  0  0  0  0  0  0  0  0  0  0
   -4.2806   27.8685    4.9518 C   0  0  0  0  0  0  0  0  0  0  0  0
   -3.8286   29.1744    4.7954 C   0  0  0  0  0  0  0  0  0  0  0  0
   -3.0102   29.5171    3.7103 C   0  0  0  0  0  0  0  0  0  0  0  0
   -2.6681   28.5327    2.7588 C   0  0  0  0  0  0  0  0  0  0  0  0
   -1.7882   28.9271    1.5929 C   0  0  0  0  0  0  0  0  0  0  0  0
   -1.7148   30.4432    1.3685 C   0  0  0  0  0  0  0  0  0  0  0  0
   -1.4261   31.1368    2.6318 N   0  0  0  0  0  0  0  0  0  0  0  0
   -1.1691   32.5714    2.4369 C   0  0  0  0  0  0  0  0  0  0  0  0
    0.1766   32.8440    1.7733 C   0  0  0  0  0  0  0  0  0  0  0  0
   -2.5702   30.9578    3.5475 C   0  0  0  0  0  0  0  0  0  0  0  0
  1  2  2  3
  2  3  1  0
  2  4  1  0
  4  5  1  0
  5  6  2  0
  6  7  1  0
  7  8  2  0
  8  9  1  0
  9 10  2  0
 10 11  1  0
 11 12  1  0
 12 13  1  0
 13 14  1  0
 14 15  1  0
 13 16  1  0
 10  5  1  0
 16  9  1  0
M  END
>  <Energy>  (550) 
-8.6961667560256934

>  <Energy_Delta>  (550) 
0.17702990101466476

>  <std_smi>  (550) 
CCN1CCc2c(cccc2NC(C)=O)C1

>  <enum_smi>  (550) 
C=C(O)Nc1cccc2c1CCN(CC)C2

>  <enum_code>  (550) 
T

>  <parent_uuid>  (550) 
159e9a67-9ddd-4f06-8bc8-f63c27ed1469

>  <o3da_score>  (550) 
75.847873340660456

>  <o3da_score_rel>  (550) 
0.30196140415257522

>  <o3da_align>  (550) 
0.42071040756735639

>  <RMSD>  (550) 
6.1548946429323137e-05

>  <CONVERGED>  (550) 
0

>  <ENERGY>  (550) 
-8.6961667571261909

$$$$
5d9c0352-244e-4fcc-8032-785421745f4c
     RDKit          3D

 16 17  0  0  0  0  0  0  0  0999 V2000
   -0.3100   32.8167    1.4721 C   0  0  0  0  0  0  0  0  0  0  0  0
   -1.0940   32.5340    2.5138 C   0  0  0  0  0  0  0  0  0  0  0  0
   -1.1984   33.4680    3.5143 O   0  0  0  0  0  0  0  0  0  0  0  0
   -1.8809   31.4164    2.6199 N   0  0  0  0  0  0  0  0  0  0  0  0
   -2.1196   30.6392    3.7830 C   0  0  0  0  0  0  0  0  0  0  0  0
   -1.3059   30.7476    4.9218 C   0  0  0  0  0  0  0  0  0  0  0  0
   -1.5644   29.9981    6.0684 C   0  0  0  0  0  0  0  0  0  0  0  0
   -2.6516   29.1321    6.1003 C   0  0  0  0  0  0  0  0  0  0  0  0
   -3.4944   29.0077    4.9866 C   0  0  0  0  0  0  0  0  0  0  0  0
   -3.2151   29.7453    3.8153 C   0  0  0  0  0  0  0  0  0  0  0  0
   -4.1668   29.6275    2.6452 C   0  0  0  0  0  0  0  0  0  0  0  0
   -5.0602   28.3835    2.7149 C   0  0  0  0  0  0  0  0  0  0  0  0
   -5.6967   28.2694    4.0349 N   0  0  0  0  0  0  0  0  0  0  0  0
   -6.7028   27.1963    4.0234 C   0  0  0  0  0  0  0  0  0  0  0  0
   -7.5451   27.1511    5.2940 C   0  0  0  0  0  0  0  0  0  0  0  0
   -4.6582   28.0370    5.0552 C   0  0  0  0  0  0  0  0  0  0  0  0
  1  2  2  3
  2  3  1  0
  2  4  1  0
  4  5  1  0
  5  6  2  0
  6  7  1  0
  7  8  2  0
  8  9  1  0
  9 10  2  0
 10 11  1  0
 11 12  1  0
 12 13  1  0
 13 14  1  0
 14 15  1  0
 13 16  1  0
 10  5  1  0
 16  9  1  0
M  END
>  <Energy>  (551) 
-8.2942568365728526

>  <Energy_Delta>  (551) 
0.57893982046750558

>  <std_smi>  (551) 
CCN1CCc2c(cccc2NC(C)=O)C1

>  <enum_smi>  (551) 
C=C(O)Nc1cccc2c1CCN(CC)C2

>  <enum_code>  (551) 
T

>  <parent_uuid>  (551) 
159e9a67-9ddd-4f06-8bc8-f63c27ed1469

>  <o3da_score>  (551) 
66.336737391662197

>  <o3da_score_rel>  (551) 
0.26409619001075785

>  <o3da_align>  (551) 
0.33549528563273973

>  <RMSD>  (551) 
6.6827838856409549e-05

>  <CONVERGED>  (551) 
0

>  <ENERGY>  (551) 
-8.2942568362108684

$$$$
5d9c0352-244e-4fcc-8032-785421745f4c
     RDKit          3D

 16 17  0  0  0  0  0  0  0  0999 V2000
    0.0668   31.7674    0.3644 C   0  0  0  0  0  0  0  0  0  0  0  0
   -0.8757   30.8236    0.3948 C   0  0  0  0  0  0  0  0  0  0  0  0
   -1.4483   30.4460   -0.7941 O   0  0  0  0  0  0  0  0  0  0  0  0
   -1.3857   30.2641    1.5378 N   0  0  0  0  0  0  0  0  0  0  0  0
   -1.7353   28.9051    1.7487 C   0  0  0  0  0  0  0  0  0  0  0  0
   -1.2941   27.8882    0.8873 C   0  0  0  0  0  0  0  0  0  0  0  0
   -1.6642   26.5595    1.0890 C   0  0  0  0  0  0  0  0  0  0  0  0
   -2.4942   26.2245    2.1530 C   0  0  0  0  0  0  0  0  0  0  0  0
   -2.9655   27.2153    3.0261 C   0  0  0  0  0  0  0  0  0  0  0  0
   -2.5667   28.5569    2.8385 C   0  0  0  0  0  0  0  0  0  0  0  0
   -3.1269   29.6120    3.7668 C   0  0  0  0  0  0  0  0  0  0  0  0
   -3.6985   29.0327    5.0662 C   0  0  0  0  0  0  0  0  0  0  0  0
   -4.6138   27.9176    4.7843 N   0  0  0  0  0  0  0  0  0  0  0  0
   -5.3088   27.5068    6.0138 C   0  0  0  0  0  0  0  0  0  0  0  0
   -6.4200   26.4926    5.7636 C   0  0  0  0  0  0  0  0  0  0  0  0
   -3.8529   26.8055    4.1863 C   0  0  0  0  0  0  0  0  0  0  0  0
  1  2  2  3
  2  3  1  0
  2  4  1  0
  4  5  1  0
  5  6  2  0
  6  7  1  0
  7  8  2  0
  8  9  1  0
  9 10  2  0
 10 11  1  0
 11 12  1  0
 12 13  1  0
 13 14  1  0
 14 15  1  0
 13 16  1  0
 10  5  1  0
 16  9  1  0
M  END
>  <Energy>  (552) 
-8.2942568364095841

>  <Energy_Delta>  (552) 
0.57893982063077409

>  <std_smi>  (552) 
CCN1CCc2c(cccc2NC(C)=O)C1

>  <enum_smi>  (552) 
C=C(O)Nc1cccc2c1CCN(CC)C2

>  <enum_code>  (552) 
T

>  <parent_uuid>  (552) 
159e9a67-9ddd-4f06-8bc8-f63c27ed1469

>  <o3da_score>  (552) 
66.795678978413505

>  <o3da_score_rel>  (552) 
0.26592330314993595

>  <o3da_align>  (552) 
0.36319642351106057

>  <RMSD>  (552) 
6.4278462515190044e-05

>  <CONVERGED>  (552) 
0

>  <ENERGY>  (552) 
-8.2942568368662286

$$$$
5d9c0352-244e-4fcc-8032-785421745f4c
     RDKit          3D

 16 17  0  0  0  0  0  0  0  0999 V2000
   -4.0529   30.1658    5.5955 C   0  0  0  0  0  0  0  0  0  0  0  0
   -3.8327   29.0762    4.8579 C   0  0  0  0  0  0  0  0  0  0  0  0
   -2.7461   29.0746    4.0192 O   0  0  0  0  0  0  0  0  0  0  0  0
   -4.6645   27.9874    4.8037 N   0  0  0  0  0  0  0  0  0  0  0  0
   -4.2886   26.6201    4.7476 C   0  0  0  0  0  0  0  0  0  0  0  0
   -2.9857   26.1984    5.0554 C   0  0  0  0  0  0  0  0  0  0  0  0
   -2.6229   24.8546    4.9744 C   0  0  0  0  0  0  0  0  0  0  0  0
   -3.5569   23.9058    4.5735 C   0  0  0  0  0  0  0  0  0  0  0  0
   -4.8632   24.2918    4.2444 C   0  0  0  0  0  0  0  0  0  0  0  0
   -5.2391   25.6506    4.3512 C   0  0  0  0  0  0  0  0  0  0  0  0
   -6.6422   26.0568    3.9461 C   0  0  0  0  0  0  0  0  0  0  0  0
   -7.5987   24.8681    3.7757 C   0  0  0  0  0  0  0  0  0  0  0  0
   -7.0179   23.7196    3.0669 N   0  0  0  0  0  0  0  0  0  0  0  0
   -6.6511   23.9881    1.6686 C   0  0  0  0  0  0  0  0  0  0  0  0
   -7.8526   24.3288    0.7929 C   0  0  0  0  0  0  0  0  0  0  0  0
   -5.8630   23.2268    3.8391 C   0  0  0  0  0  0  0  0  0  0  0  0
  1  2  2  3
  2  3  1  0
  2  4  1  0
  4  5  1  0
  5  6  2  0
  6  7  1  0
  7  8  2  0
  8  9  1  0
  9 10  2  0
 10 11  1  0
 11 12  1  0
 12 13  1  0
 13 14  1  0
 14 15  1  0
 13 16  1  0
 10  5  1  0
 16  9  1  0
M  END
>  <Energy>  (553) 
-6.8339123673368416

>  <Energy_Delta>  (553) 
2.0392842897035166

>  <std_smi>  (553) 
CCN1CCc2c(cccc2NC(C)=O)C1

>  <enum_smi>  (553) 
C=C(O)Nc1cccc2c1CCN(CC)C2

>  <enum_code>  (553) 
T

>  <parent_uuid>  (553) 
159e9a67-9ddd-4f06-8bc8-f63c27ed1469

>  <o3da_score>  (553) 
76.770427718457682

>  <o3da_score_rel>  (553) 
0.30563422717393496

>  <o3da_align>  (553) 
0.28821359750392123

>  <RMSD>  (553) 
7.3229054674295134e-05

>  <CONVERGED>  (553) 
0

>  <ENERGY>  (553) 
-6.8339123677777094

$$$$
5d9c0352-244e-4fcc-8032-785421745f4c
     RDKit          3D

 16 17  0  0  0  0  0  0  0  0999 V2000
   -4.2778   21.4361    4.6511 C   0  0  0  0  0  0  0  0  0  0  0  0
   -3.4551   22.4511    4.3814 C   0  0  0  0  0  0  0  0  0  0  0  0
   -2.3574   22.2001    3.5966 O   0  0  0  0  0  0  0  0  0  0  0  0
   -3.6716   23.7530    4.7523 N   0  0  0  0  0  0  0  0  0  0  0  0
   -2.7087   24.6890    5.2112 C   0  0  0  0  0  0  0  0  0  0  0  0
   -1.4359   24.2852    5.6447 C   0  0  0  0  0  0  0  0  0  0  0  0
   -0.4878   25.2152    6.0693 C   0  0  0  0  0  0  0  0  0  0  0  0
   -0.7926   26.5717    6.0581 C   0  0  0  0  0  0  0  0  0  0  0  0
   -2.0485   27.0129    5.6189 C   0  0  0  0  0  0  0  0  0  0  0  0
   -3.0197   26.0686    5.2148 C   0  0  0  0  0  0  0  0  0  0  0  0
   -4.3511   26.5733    4.6962 C   0  0  0  0  0  0  0  0  0  0  0  0
   -4.6409   28.0333    5.0708 C   0  0  0  0  0  0  0  0  0  0  0  0
   -3.4785   28.8732    4.7777 N   0  0  0  0  0  0  0  0  0  0  0  0
   -3.7716   30.3092    4.8102 C   0  0  0  0  0  0  0  0  0  0  0  0
   -4.2954   30.8784    6.1259 C   0  0  0  0  0  0  0  0  0  0  0  0
   -2.3554   28.4981    5.6460 C   0  0  0  0  0  0  0  0  0  0  0  0
  1  2  2  3
  2  3  1  0
  2  4  1  0
  4  5  1  0
  5  6  2  0
  6  7  1  0
  7  8  2  0
  8  9  1  0
  9 10  2  0
 10 11  1  0
 11 12  1  0
 12 13  1  0
 13 14  1  0
 14 15  1  0
 13 16  1  0
 10  5  1  0
 16  9  1  0
M  END
>  <Energy>  (554) 
-6.7591825050679608

>  <Energy_Delta>  (554) 
2.1140141519723974

>  <std_smi>  (554) 
CCN1CCc2c(cccc2NC(C)=O)C1

>  <enum_smi>  (554) 
C=C(O)Nc1cccc2c1CCN(CC)C2

>  <enum_code>  (554) 
T

>  <parent_uuid>  (554) 
159e9a67-9ddd-4f06-8bc8-f63c27ed1469

>  <o3da_score>  (554) 
66.961768668878079

>  <o3da_score_rel>  (554) 
0.26658453033982293

>  <o3da_align>  (554) 
0.21839694686017508

>  <RMSD>  (554) 
6.8403283401519187e-05

>  <CONVERGED>  (554) 
0

>  <ENERGY>  (554) 
-6.7591825052253309

$$$$
5d9c0352-244e-4fcc-8032-785421745f4c
     RDKit          3D

 16 17  0  0  0  0  0  0  0  0999 V2000
  -11.2082   24.4437    3.9302 C   0  0  0  0  0  0  0  0  0  0  0  0
   -9.9917   24.3381    4.4675 C   0  0  0  0  0  0  0  0  0  0  0  0
   -9.7711   23.3278    5.3701 O   0  0  0  0  0  0  0  0  0  0  0  0
   -8.9646   25.2215    4.2576 N   0  0  0  0  0  0  0  0  0  0  0  0
   -7.5882   24.9183    4.0934 C   0  0  0  0  0  0  0  0  0  0  0  0
   -7.1486   23.6153    3.8107 C   0  0  0  0  0  0  0  0  0  0  0  0
   -5.7919   23.3227    3.6770 C   0  0  0  0  0  0  0  0  0  0  0  0
   -4.8460   24.3295    3.8344 C   0  0  0  0  0  0  0  0  0  0  0  0
   -5.2469   25.6396    4.1307 C   0  0  0  0  0  0  0  0  0  0  0  0
   -6.6235   25.9422    4.2388 C   0  0  0  0  0  0  0  0  0  0  0  0
   -7.0292   27.3543    4.6098 C   0  0  0  0  0  0  0  0  0  0  0  0
   -5.9112   28.3862    4.4074 C   0  0  0  0  0  0  0  0  0  0  0  0
   -4.6610   27.9027    4.9956 N   0  0  0  0  0  0  0  0  0  0  0  0
   -3.6348   28.9416    5.1236 C   0  0  0  0  0  0  0  0  0  0  0  0
   -3.1783   29.6248    3.8374 C   0  0  0  0  0  0  0  0  0  0  0  0
   -4.1888   26.7175    4.2688 C   0  0  0  0  0  0  0  0  0  0  0  0
  1  2  2  3
  2  3  1  0
  2  4  1  0
  4  5  1  0
  5  6  2  0
  6  7  1  0
  7  8  2  0
  8  9  1  0
  9 10  2  0
 10 11  1  0
 11 12  1  0
 12 13  1  0
 13 14  1  0
 14 15  1  0
 13 16  1  0
 10  5  1  0
 16  9  1  0
M  END
>  <Energy>  (555) 
-6.7591825045914229

>  <Energy_Delta>  (555) 
2.1140141524489353

>  <std_smi>  (555) 
CCN1CCc2c(cccc2NC(C)=O)C1

>  <enum_smi>  (555) 
C=C(O)Nc1cccc2c1CCN(CC)C2

>  <enum_code>  (555) 
T

>  <parent_uuid>  (555) 
159e9a67-9ddd-4f06-8bc8-f63c27ed1469

>  <o3da_score>  (555) 
68.463827397177042

>  <o3da_score_rel>  (555) 
0.27256444438012389

>  <o3da_align>  (555) 
0.3979268652223219

>  <RMSD>  (555) 
7.1832475271780711e-05

>  <CONVERGED>  (555) 
0

>  <ENERGY>  (555) 
-6.7591825052357217

$$$$
5d9c0352-244e-4fcc-8032-785421745f4c
     RDKit          3D

 16 17  0  0  0  0  0  0  0  0999 V2000
   -2.6107   29.0510    4.3186 C   0  0  0  0  0  0  0  0  0  0  0  0
   -3.7788   28.9821    4.9600 C   0  0  0  0  0  0  0  0  0  0  0  0
   -4.2773   30.1472    5.4890 O   0  0  0  0  0  0  0  0  0  0  0  0
   -4.5873   27.8932    5.1453 N   0  0  0  0  0  0  0  0  0  0  0  0
   -4.2684   26.5311    4.9497 C   0  0  0  0  0  0  0  0  0  0  0  0
   -3.0568   26.0120    5.4335 C   0  0  0  0  0  0  0  0  0  0  0  0
   -2.7240   24.6696    5.2633 C   0  0  0  0  0  0  0  0  0  0  0  0
   -3.6031   23.8177    4.6045 C   0  0  0  0  0  0  0  0  0  0  0  0
   -4.8223   24.3002    4.1064 C   0  0  0  0  0  0  0  0  0  0  0  0
   -5.1450   25.6676    4.2538 C   0  0  0  0  0  0  0  0  0  0  0  0
   -6.4581   26.1611    3.6896 C   0  0  0  0  0  0  0  0  0  0  0  0
   -7.0775   25.2035    2.6653 C   0  0  0  0  0  0  0  0  0  0  0  0
   -7.1162   23.8331    3.1952 N   0  0  0  0  0  0  0  0  0  0  0  0
   -7.8989   22.9647    2.3025 C   0  0  0  0  0  0  0  0  0  0  0  0
   -8.1482   21.5772    2.8843 C   0  0  0  0  0  0  0  0  0  0  0  0
   -5.7353   23.3429    3.3632 C   0  0  0  0  0  0  0  0  0  0  0  0
  1  2  2  3
  2  3  1  0
  2  4  1  0
  4  5  1  0
  5  6  2  0
  6  7  1  0
  7  8  2  0
  8  9  1  0
  9 10  2  0
 10 11  1  0
 11 12  1  0
 12 13  1  0
 13 14  1  0
 14 15  1  0
 13 16  1  0
 10  5  1  0
 16  9  1  0
M  END
>  <Energy>  (556) 
-4.9424655805198814

>  <Energy_Delta>  (556) 
3.9307310765204768

>  <std_smi>  (556) 
CCN1CCc2c(cccc2NC(C)=O)C1

>  <enum_smi>  (556) 
C=C(O)Nc1cccc2c1CCN(CC)C2

>  <enum_code>  (556) 
T

>  <parent_uuid>  (556) 
159e9a67-9ddd-4f06-8bc8-f63c27ed1469

>  <o3da_score>  (556) 
71.759769885693316

>  <o3da_score_rel>  (556) 
0.28568607031376725

>  <o3da_align>  (556) 
0.13617634373709461

>  <RMSD>  (556) 
0.18354917632346884

>  <CONVERGED>  (556) 
0

>  <ENERGY>  (556) 
-3.2971082409816592

$$$$
5d9c0352-244e-4fcc-8032-785421745f4c
     RDKit          3D

 16 17  0  0  0  0  0  0  0  0999 V2000
   -1.9504   29.2382   -1.4243 C   0  0  0  0  0  0  0  0  0  0  0  0
   -1.4369   28.2237   -0.7261 C   0  0  0  0  0  0  0  0  0  0  0  0
   -0.7789   27.2435   -1.4270 O   0  0  0  0  0  0  0  0  0  0  0  0
   -1.5020   27.9886    0.6234 N   0  0  0  0  0  0  0  0  0  0  0  0
   -1.8177   28.9158    1.6465 C   0  0  0  0  0  0  0  0  0  0  0  0
   -1.3186   30.2283    1.5905 C   0  0  0  0  0  0  0  0  0  0  0  0
   -1.6189   31.1648    2.5778 C   0  0  0  0  0  0  0  0  0  0  0  0
   -2.4271   30.8039    3.6486 C   0  0  0  0  0  0  0  0  0  0  0  0
   -2.9337   29.5001    3.7477 C   0  0  0  0  0  0  0  0  0  0  0  0
   -2.6012   28.5407    2.7639 C   0  0  0  0  0  0  0  0  0  0  0  0
   -3.1677   27.1448    2.9067 C   0  0  0  0  0  0  0  0  0  0  0  0
   -3.7220   26.8368    4.3049 C   0  0  0  0  0  0  0  0  0  0  0  0
   -4.5944   27.9226    4.7684 N   0  0  0  0  0  0  0  0  0  0  0  0
   -5.2813   27.5926    6.0259 C   0  0  0  0  0  0  0  0  0  0  0  0
   -6.3774   26.5485    5.8421 C   0  0  0  0  0  0  0  0  0  0  0  0
   -3.7803   29.1392    4.9518 C   0  0  0  0  0  0  0  0  0  0  0  0
  1  2  2  3
  2  3  1  0
  2  4  1  0
  4  5  1  0
  5  6  2  0
  6  7  1  0
  7  8  2  0
  8  9  1  0
  9 10  2  0
 10 11  1  0
 11 12  1  0
 12 13  1  0
 13 14  1  0
 14 15  1  0
 13 16  1  0
 10  5  1  0
 16  9  1  0
M  END
>  <Energy>  (557) 
-4.1882715269851776

>  <Energy_Delta>  (557) 
4.6849251300551806

>  <std_smi>  (557) 
CCN1CCc2c(cccc2NC(C)=O)C1

>  <enum_smi>  (557) 
C=C(O)Nc1cccc2c1CCN(CC)C2

>  <enum_code>  (557) 
T

>  <parent_uuid>  (557) 
159e9a67-9ddd-4f06-8bc8-f63c27ed1469

>  <o3da_score>  (557) 
67.133786612021325

>  <o3da_score_rel>  (557) 
0.26726935876497437

>  <o3da_align>  (557) 
0.32958016734900503

>  <RMSD>  (557) 
0.13820705754496235

>  <CONVERGED>  (557) 
0

>  <ENERGY>  (557) 
-2.5781117061632113

$$$$
5d9c0352-244e-4fcc-8032-785421745f4c
     RDKit          3D

 16 17  0  0  0  0  0  0  0  0999 V2000
   -2.5635   29.0488    4.3741 C   0  0  0  0  0  0  0  0  0  0  0  0
   -3.7479   28.9915    4.9861 C   0  0  0  0  0  0  0  0  0  0  0  0
   -4.2420   30.1591    5.5136 O   0  0  0  0  0  0  0  0  0  0  0  0
   -4.5788   27.9138    5.1411 N   0  0  0  0  0  0  0  0  0  0  0  0
   -4.2711   26.5489    4.9426 C   0  0  0  0  0  0  0  0  0  0  0  0
   -3.0764   26.0130    5.4504 C   0  0  0  0  0  0  0  0  0  0  0  0
   -2.7509   24.6693    5.2750 C   0  0  0  0  0  0  0  0  0  0  0  0
   -3.6201   23.8312    4.5864 C   0  0  0  0  0  0  0  0  0  0  0  0
   -4.8249   24.3281    4.0697 C   0  0  0  0  0  0  0  0  0  0  0  0
   -5.1441   25.6976    4.2270 C   0  0  0  0  0  0  0  0  0  0  0  0
   -6.4487   26.2121    3.6540 C   0  0  0  0  0  0  0  0  0  0  0  0
   -7.1301   25.2276    2.6936 C   0  0  0  0  0  0  0  0  0  0  0  0
   -7.1236   23.8332    3.1558 N   0  0  0  0  0  0  0  0  0  0  0  0
   -7.8782   23.5944    4.3945 C   0  0  0  0  0  0  0  0  0  0  0  0
   -9.3696   23.8777    4.2470 C   0  0  0  0  0  0  0  0  0  0  0  0
   -5.7235   23.3909    3.2865 C   0  0  0  0  0  0  0  0  0  0  0  0
  1  2  2  3
  2  3  1  0
  2  4  1  0
  4  5  1  0
  5  6  2  0
  6  7  1  0
  7  8  2  0
  8  9  1  0
  9 10  2  0
 10 11  1  0
 11 12  1  0
 12 13  1  0
 13 14  1  0
 14 15  1  0
 13 16  1  0
 10  5  1  0
 16  9  1  0
M  END
>  <Energy>  (558) 
-3.3386778615777528

>  <Energy_Delta>  (558) 
5.5345187954626054

>  <std_smi>  (558) 
CCN1CCc2c(cccc2NC(C)=O)C1

>  <enum_smi>  (558) 
C=C(O)Nc1cccc2c1CCN(CC)C2

>  <enum_code>  (558) 
T

>  <parent_uuid>  (558) 
159e9a67-9ddd-4f06-8bc8-f63c27ed1469

>  <o3da_score>  (558) 
71.644227793740711

>  <o3da_score_rel>  (558) 
0.28522608045791414

>  <o3da_align>  (558) 
0.14936274972456295

>  <RMSD>  (558) 
0.17166926500389817

>  <CONVERGED>  (558) 
0

>  <ENERGY>  (558) 
-1.4801112616283425

$$$$
5d9c0352-244e-4fcc-8032-785421745f4c
     RDKit          3D

 16 17  0  0  0  0  0  0  0  0999 V2000
    0.2753   33.1017    3.1961 C   0  0  0  0  0  0  0  0  0  0  0  0
   -1.0453   33.2924    3.2130 C   0  0  0  0  0  0  0  0  0  0  0  0
   -1.4951   34.5677    3.4519 O   0  0  0  0  0  0  0  0  0  0  0  0
   -2.0427   32.3689    3.0517 N   0  0  0  0  0  0  0  0  0  0  0  0
   -1.9335   31.0494    2.5594 C   0  0  0  0  0  0  0  0  0  0  0  0
   -1.1768   30.7851    1.4066 C   0  0  0  0  0  0  0  0  0  0  0  0
   -1.0628   29.4941    0.8945 C   0  0  0  0  0  0  0  0  0  0  0  0
   -1.7090   28.4394    1.5290 C   0  0  0  0  0  0  0  0  0  0  0  0
   -2.4731   28.6644    2.6836 C   0  0  0  0  0  0  0  0  0  0  0  0
   -2.5635   29.9688    3.2181 C   0  0  0  0  0  0  0  0  0  0  0  0
   -3.3792   30.1759    4.4743 C   0  0  0  0  0  0  0  0  0  0  0  0
   -3.6573   28.8769    5.2391 C   0  0  0  0  0  0  0  0  0  0  0  0
   -4.1811   27.8448    4.3331 N   0  0  0  0  0  0  0  0  0  0  0  0
   -4.6435   26.6797    5.1030 C   0  0  0  0  0  0  0  0  0  0  0  0
   -5.3784   25.6515    4.2494 C   0  0  0  0  0  0  0  0  0  0  0  0
   -3.1321   27.4786    3.3631 C   0  0  0  0  0  0  0  0  0  0  0  0
  1  2  2  3
  2  3  1  0
  2  4  1  0
  4  5  1  0
  5  6  2  0
  6  7  1  0
  7  8  2  0
  8  9  1  0
  9 10  2  0
 10 11  1  0
 11 12  1  0
 12 13  1  0
 13 14  1  0
 14 15  1  0
 13 16  1  0
 10  5  1  0
 16  9  1  0
M  END
>  <Energy>  (559) 
-3.2971082369305145

>  <Energy_Delta>  (559) 
5.5760884201098442

>  <std_smi>  (559) 
CCN1CCc2c(cccc2NC(C)=O)C1

>  <enum_smi>  (559) 
C=C(O)Nc1cccc2c1CCN(CC)C2

>  <enum_code>  (559) 
T

>  <parent_uuid>  (559) 
159e9a67-9ddd-4f06-8bc8-f63c27ed1469

>  <o3da_score>  (559) 
65.754020872215037

>  <o3da_score_rel>  (559) 
0.26177631088052994

>  <o3da_align>  (559) 
0.49511632942137834

>  <RMSD>  (559) 
7.2856286298590963e-05

>  <CONVERGED>  (559) 
0

>  <ENERGY>  (559) 
-3.2971082410025625

$$$$
5d9c0352-244e-4fcc-8032-785421745f4c
     RDKit          3D

 16 17  0  0  0  0  0  0  0  0999 V2000
   -2.0282   33.2598    2.0791 C   0  0  0  0  0  0  0  0  0  0  0  0
   -1.1658   32.2481    2.1934 C   0  0  0  0  0  0  0  0  0  0  0  0
    0.0057   32.3349    1.4821 O   0  0  0  0  0  0  0  0  0  0  0  0
   -1.2978   31.0917    2.9138 N   0  0  0  0  0  0  0  0  0  0  0  0
   -2.2414   30.8001    3.9237 C   0  0  0  0  0  0  0  0  0  0  0  0
   -2.5134   31.7404    4.9304 C   0  0  0  0  0  0  0  0  0  0  0  0
   -3.4318   31.4724    5.9438 C   0  0  0  0  0  0  0  0  0  0  0  0
   -4.0967   30.2519    5.9691 C   0  0  0  0  0  0  0  0  0  0  0  0
   -3.8512   29.2883    4.9803 C   0  0  0  0  0  0  0  0  0  0  0  0
   -2.9413   29.5721    3.9378 C   0  0  0  0  0  0  0  0  0  0  0  0
   -2.7099   28.5180    2.8780 C   0  0  0  0  0  0  0  0  0  0  0  0
   -3.7888   27.4270    2.8479 C   0  0  0  0  0  0  0  0  0  0  0  0
   -4.0361   26.9103    4.2007 N   0  0  0  0  0  0  0  0  0  0  0  0
   -4.9306   25.7432    4.1998 C   0  0  0  0  0  0  0  0  0  0  0  0
   -4.2604   24.4881    3.6512 C   0  0  0  0  0  0  0  0  0  0  0  0
   -4.6268   27.9871    5.0197 C   0  0  0  0  0  0  0  0  0  0  0  0
  1  2  2  3
  2  3  1  0
  2  4  1  0
  4  5  1  0
  5  6  2  0
  6  7  1  0
  7  8  2  0
  8  9  1  0
  9 10  2  0
 10 11  1  0
 11 12  1  0
 12 13  1  0
 13 14  1  0
 14 15  1  0
 13 16  1  0
 10  5  1  0
 16  9  1  0
M  END
>  <Energy>  (560) 
-3.1281356554631126

>  <Energy_Delta>  (560) 
5.7450610015772456

>  <std_smi>  (560) 
CCN1CCc2c(cccc2NC(C)=O)C1

>  <enum_smi>  (560) 
C=C(O)Nc1cccc2c1CCN(CC)C2

>  <enum_code>  (560) 
T

>  <parent_uuid>  (560) 
159e9a67-9ddd-4f06-8bc8-f63c27ed1469

>  <o3da_score>  (560) 
70.913238417669845

>  <o3da_score_rel>  (560) 
0.28231590554203234

>  <o3da_align>  (560) 
0.49507932225326962

>  <RMSD>  (560) 
6.976341106097366e-05

>  <CONVERGED>  (560) 
0

>  <ENERGY>  (560) 
-3.1281356555329527

$$$$
5d9c0352-244e-4fcc-8032-785421745f4c
     RDKit          3D

 16 17  0  0  0  0  0  0  0  0999 V2000
   -1.0787   33.4264    3.5520 C   0  0  0  0  0  0  0  0  0  0  0  0
   -1.1021   32.5228    2.5705 C   0  0  0  0  0  0  0  0  0  0  0  0
   -0.2711   32.7352    1.4980 O   0  0  0  0  0  0  0  0  0  0  0  0
   -1.8331   31.3682    2.4909 N   0  0  0  0  0  0  0  0  0  0  0  0
   -2.9372   30.9827    3.2832 C   0  0  0  0  0  0  0  0  0  0  0  0
   -3.9663   31.8982    3.5559 C   0  0  0  0  0  0  0  0  0  0  0  0
   -5.0711   31.5389    4.3256 C   0  0  0  0  0  0  0  0  0  0  0  0
   -5.1673   30.2501    4.8377 C   0  0  0  0  0  0  0  0  0  0  0  0
   -4.1587   29.3087    4.5866 C   0  0  0  0  0  0  0  0  0  0  0  0
   -3.0258   29.6822    3.8301 C   0  0  0  0  0  0  0  0  0  0  0  0
   -1.9483   28.6484    3.5900 C   0  0  0  0  0  0  0  0  0  0  0  0
   -2.0329   27.4396    4.5317 C   0  0  0  0  0  0  0  0  0  0  0  0
   -3.4046   26.9154    4.5742 N   0  0  0  0  0  0  0  0  0  0  0  0
   -3.4989   25.6528    5.3220 C   0  0  0  0  0  0  0  0  0  0  0  0
   -2.8836   24.4765    4.5715 C   0  0  0  0  0  0  0  0  0  0  0  0
   -4.2807   27.9271    5.1971 C   0  0  0  0  0  0  0  0  0  0  0  0
  1  2  2  3
  2  3  1  0
  2  4  1  0
  4  5  1  0
  5  6  2  0
  6  7  1  0
  7  8  2  0
  8  9  1  0
  9 10  2  0
 10 11  1  0
 11 12  1  0
 12 13  1  0
 13 14  1  0
 14 15  1  0
 13 16  1  0
 10  5  1  0
 16  9  1  0
M  END
>  <Energy>  (561) 
-3.1281356554568509

>  <Energy_Delta>  (561) 
5.7450610015835073

>  <std_smi>  (561) 
CCN1CCc2c(cccc2NC(C)=O)C1

>  <enum_smi>  (561) 
C=C(O)Nc1cccc2c1CCN(CC)C2

>  <enum_code>  (561) 
T

>  <parent_uuid>  (561) 
159e9a67-9ddd-4f06-8bc8-f63c27ed1469

>  <o3da_score>  (561) 
76.218822157713575

>  <o3da_score_rel>  (561) 
0.30343820529059801

>  <o3da_align>  (561) 
0.62226853011690952

>  <RMSD>  (561) 
6.8406607337737754e-05

>  <CONVERGED>  (561) 
0

>  <ENERGY>  (561) 
-3.1281356554682804

$$$$
5d9c0352-244e-4fcc-8032-785421745f4c
     RDKit          3D

 16 17  0  0  0  0  0  0  0  0999 V2000
    2.0087   26.2643    3.6403 C   0  0  0  0  0  0  0  0  0  0  0  0
    1.7131   27.1840    4.5607 C   0  0  0  0  0  0  0  0  0  0  0  0
    2.7068   28.0609    4.9196 O   0  0  0  0  0  0  0  0  0  0  0  0
    0.5185   27.4143    5.1938 N   0  0  0  0  0  0  0  0  0  0  0  0
   -0.5868   26.5345    5.2971 C   0  0  0  0  0  0  0  0  0  0  0  0
   -0.3806   25.1627    5.5219 C   0  0  0  0  0  0  0  0  0  0  0  0
   -1.4476   24.2718    5.6199 C   0  0  0  0  0  0  0  0  0  0  0  0
   -2.7500   24.7389    5.4966 C   0  0  0  0  0  0  0  0  0  0  0  0
   -2.9989   26.1032    5.2865 C   0  0  0  0  0  0  0  0  0  0  0  0
   -1.9174   27.0117    5.2225 C   0  0  0  0  0  0  0  0  0  0  0  0
   -2.2271   28.4756    4.9993 C   0  0  0  0  0  0  0  0  0  0  0  0
   -3.6899   28.8435    5.2755 C   0  0  0  0  0  0  0  0  0  0  0  0
   -4.5997   27.9104    4.5982 N   0  0  0  0  0  0  0  0  0  0  0  0
   -5.9869   28.3896    4.6968 C   0  0  0  0  0  0  0  0  0  0  0  0
   -6.9619   27.5798    3.8487 C   0  0  0  0  0  0  0  0  0  0  0  0
   -4.4396   26.5698    5.1899 C   0  0  0  0  0  0  0  0  0  0  0  0
  1  2  2  3
  2  3  1  0
  2  4  1  0
  4  5  1  0
  5  6  2  0
  6  7  1  0
  7  8  2  0
  8  9  1  0
  9 10  2  0
 10 11  1  0
 11 12  1  0
 12 13  1  0
 13 14  1  0
 14 15  1  0
 13 16  1  0
 10  5  1  0
 16  9  1  0
M  END
>  <Energy>  (562) 
-2.7306124068386559

>  <Energy_Delta>  (562) 
6.1425842502017023

>  <std_smi>  (562) 
CCN1CCc2c(cccc2NC(C)=O)C1

>  <enum_smi>  (562) 
C=C(O)Nc1cccc2c1CCN(CC)C2

>  <enum_code>  (562) 
T

>  <parent_uuid>  (562) 
159e9a67-9ddd-4f06-8bc8-f63c27ed1469

>  <o3da_score>  (562) 
64.195733490248074

>  <o3da_score_rel>  (562) 
0.25557254240018501

>  <o3da_align>  (562) 
0.30672220677899997

>  <RMSD>  (562) 
6.3847231264824525e-05

>  <CONVERGED>  (562) 
0

>  <ENERGY>  (562) 
-2.7306124069356645

$$$$
5d9c0352-244e-4fcc-8032-785421745f4c
     RDKit          3D

 16 17  0  0  0  0  0  0  0  0999 V2000
   -1.0842   30.3001   -0.8497 C   0  0  0  0  0  0  0  0  0  0  0  0
   -0.7087   30.6756    0.3744 C   0  0  0  0  0  0  0  0  0  0  0  0
    0.0654   31.8046    0.4793 O   0  0  0  0  0  0  0  0  0  0  0  0
   -1.0205   30.1056    1.5821 N   0  0  0  0  0  0  0  0  0  0  0  0
   -1.5172   28.8002    1.8176 C   0  0  0  0  0  0  0  0  0  0  0  0
   -1.0146   27.7096    1.0876 C   0  0  0  0  0  0  0  0  0  0  0  0
   -1.4897   26.4154    1.2912 C   0  0  0  0  0  0  0  0  0  0  0  0
   -2.4809   26.1849    2.2368 C   0  0  0  0  0  0  0  0  0  0  0  0
   -2.9988   27.2446    2.9952 C   0  0  0  0  0  0  0  0  0  0  0  0
   -2.4928   28.5520    2.8124 C   0  0  0  0  0  0  0  0  0  0  0  0
   -3.0777   29.6683    3.6501 C   0  0  0  0  0  0  0  0  0  0  0  0
   -3.8794   29.1814    4.8655 C   0  0  0  0  0  0  0  0  0  0  0  0
   -4.8206   28.1240    4.4771 N   0  0  0  0  0  0  0  0  0  0  0  0
   -5.7269   27.7492    5.5726 C   0  0  0  0  0  0  0  0  0  0  0  0
   -6.7720   28.8204    5.8653 C   0  0  0  0  0  0  0  0  0  0  0  0
   -4.0523   26.9421    4.0418 C   0  0  0  0  0  0  0  0  0  0  0  0
  1  2  2  3
  2  3  1  0
  2  4  1  0
  4  5  1  0
  5  6  2  0
  6  7  1  0
  7  8  2  0
  8  9  1  0
  9 10  2  0
 10 11  1  0
 11 12  1  0
 12 13  1  0
 13 14  1  0
 14 15  1  0
 13 16  1  0
 10  5  1  0
 16  9  1  0
M  END
>  <Energy>  (563) 
-2.5781117059934529

>  <Energy_Delta>  (563) 
6.2950849510469054

>  <std_smi>  (563) 
CCN1CCc2c(cccc2NC(C)=O)C1

>  <enum_smi>  (563) 
C=C(O)Nc1cccc2c1CCN(CC)C2

>  <enum_code>  (563) 
T

>  <parent_uuid>  (563) 
159e9a67-9ddd-4f06-8bc8-f63c27ed1469

>  <o3da_score>  (563) 
68.516913941542072

>  <o3da_score_rel>  (563) 
0.27277578962649718

>  <o3da_align>  (563) 
0.5399830825534474

>  <RMSD>  (563) 
6.0857947708535221e-05

>  <CONVERGED>  (563) 
0

>  <ENERGY>  (563) 
-2.5781117061573031

$$$$
5d9c0352-244e-4fcc-8032-785421745f4c
     RDKit          3D

 16 17  0  0  0  0  0  0  0  0999 V2000
    0.1318   32.8260    1.9724 C   0  0  0  0  0  0  0  0  0  0  0  0
   -1.0199   32.5036    2.5634 C   0  0  0  0  0  0  0  0  0  0  0  0
   -1.8907   33.5179    2.8749 O   0  0  0  0  0  0  0  0  0  0  0  0
   -1.4450   31.2221    2.8015 N   0  0  0  0  0  0  0  0  0  0  0  0
   -2.1264   30.7408    3.9494 C   0  0  0  0  0  0  0  0  0  0  0  0
   -2.1688   31.4766    5.1441 C   0  0  0  0  0  0  0  0  0  0  0  0
   -2.8625   31.0064    6.2581 C   0  0  0  0  0  0  0  0  0  0  0  0
   -3.5377   29.7927    6.1931 C   0  0  0  0  0  0  0  0  0  0  0  0
   -3.5289   29.0367    5.0122 C   0  0  0  0  0  0  0  0  0  0  0  0
   -2.8020   29.4995    3.8936 C   0  0  0  0  0  0  0  0  0  0  0  0
   -2.8476   28.6874    2.6179 C   0  0  0  0  0  0  0  0  0  0  0  0
   -3.3067   27.2412    2.8376 C   0  0  0  0  0  0  0  0  0  0  0  0
   -4.5414   27.1990    3.6341 N   0  0  0  0  0  0  0  0  0  0  0  0
   -5.0808   25.8309    3.6642 C   0  0  0  0  0  0  0  0  0  0  0  0
   -6.4641   25.7461    4.3006 C   0  0  0  0  0  0  0  0  0  0  0  0
   -4.2617   27.7085    4.9890 C   0  0  0  0  0  0  0  0  0  0  0  0
  1  2  2  3
  2  3  1  0
  2  4  1  0
  4  5  1  0
  5  6  2  0
  6  7  1  0
  7  8  2  0
  8  9  1  0
  9 10  2  0
 10 11  1  0
 11 12  1  0
 12 13  1  0
 13 14  1  0
 14 15  1  0
 13 16  1  0
 10  5  1  0
 16  9  1  0
M  END
>  <Energy>  (564) 
-2.2482378274975203

>  <Energy_Delta>  (564) 
6.6249588295428374

>  <std_smi>  (564) 
CCN1CCc2c(cccc2NC(C)=O)C1

>  <enum_smi>  (564) 
C=C(O)Nc1cccc2c1CCN(CC)C2

>  <enum_code>  (564) 
T

>  <parent_uuid>  (564) 
159e9a67-9ddd-4f06-8bc8-f63c27ed1469

>  <o3da_score>  (564) 
71.047713324786997

>  <o3da_score_rel>  (564) 
0.28285126968591551

>  <o3da_align>  (564) 
0.37084789474288771

>  <RMSD>  (564) 
0.20752949249525152

>  <CONVERGED>  (564) 
0

>  <ENERGY>  (564) 
-8.2942568368573486

$$$$
5d9c0352-244e-4fcc-8032-785421745f4c
     RDKit          3D

 16 17  0  0  0  0  0  0  0  0999 V2000
   -5.8858   28.3607    2.9670 C   0  0  0  0  0  0  0  0  0  0  0  0
   -5.5816   28.5798    4.2476 C   0  0  0  0  0  0  0  0  0  0  0  0
   -6.0646   29.7295    4.8226 O   0  0  0  0  0  0  0  0  0  0  0  0
   -4.8119   27.8173    5.0843 N   0  0  0  0  0  0  0  0  0  0  0  0
   -4.3778   26.4866    4.8930 C   0  0  0  0  0  0  0  0  0  0  0  0
   -5.2766   25.5080    4.4387 C   0  0  0  0  0  0  0  0  0  0  0  0
   -4.8768   24.1859    4.2525 C   0  0  0  0  0  0  0  0  0  0  0  0
   -3.5636   23.8163    4.5200 C   0  0  0  0  0  0  0  0  0  0  0  0
   -2.6373   24.7658    4.9746 C   0  0  0  0  0  0  0  0  0  0  0  0
   -3.0365   26.1128    5.1366 C   0  0  0  0  0  0  0  0  0  0  0  0
   -2.0108   27.1186    5.6163 C   0  0  0  0  0  0  0  0  0  0  0  0
   -0.5623   26.6282    5.4898 C   0  0  0  0  0  0  0  0  0  0  0  0
   -0.4399   25.2770    6.0389 N   0  0  0  0  0  0  0  0  0  0  0  0
    0.9483   24.8562    6.2519 C   0  0  0  0  0  0  0  0  0  0  0  0
    1.8597   24.8309    5.0278 C   0  0  0  0  0  0  0  0  0  0  0  0
   -1.2035   24.3315    5.2139 C   0  0  0  0  0  0  0  0  0  0  0  0
  1  2  2  3
  2  3  1  0
  2  4  1  0
  4  5  1  0
  5  6  2  0
  6  7  1  0
  7  8  2  0
  8  9  1  0
  9 10  2  0
 10 11  1  0
 11 12  1  0
 12 13  1  0
 13 14  1  0
 14 15  1  0
 13 16  1  0
 10  5  1  0
 16  9  1  0
M  END
>  <Energy>  (565) 
-1.7244241110413809

>  <Energy_Delta>  (565) 
7.1487725459989768

>  <std_smi>  (565) 
CCN1CCc2c(cccc2NC(C)=O)C1

>  <enum_smi>  (565) 
C=C(O)Nc1cccc2c1CCN(CC)C2

>  <enum_code>  (565) 
T

>  <parent_uuid>  (565) 
159e9a67-9ddd-4f06-8bc8-f63c27ed1469

>  <o3da_score>  (565) 
68.268813271741152

>  <o3da_score_rel>  (565) 
0.2717880648120149

>  <o3da_align>  (565) 
0.3433164797887765

>  <RMSD>  (565) 
6.3253307264812903e-05

>  <CONVERGED>  (565) 
0

>  <ENERGY>  (565) 
-1.7244241111752681

$$$$
5d9c0352-244e-4fcc-8032-785421745f4c
     RDKit          3D

 16 17  0  0  0  0  0  0  0  0999 V2000
    0.2649   22.7048    5.6815 C   0  0  0  0  0  0  0  0  0  0  0  0
   -0.9730   23.1397    5.9222 C   0  0  0  0  0  0  0  0  0  0  0  0
   -1.8415   22.2902    6.5607 O   0  0  0  0  0  0  0  0  0  0  0  0
   -1.4184   24.4104    5.6656 N   0  0  0  0  0  0  0  0  0  0  0  0
   -2.6844   24.7961    5.1542 C   0  0  0  0  0  0  0  0  0  0  0  0
   -3.5681   23.8686    4.5817 C   0  0  0  0  0  0  0  0  0  0  0  0
   -4.8122   24.2638    4.0911 C   0  0  0  0  0  0  0  0  0  0  0  0
   -5.1969   25.5981    4.1650 C   0  0  0  0  0  0  0  0  0  0  0  0
   -4.3390   26.5534    4.7260 C   0  0  0  0  0  0  0  0  0  0  0  0
   -3.0868   26.1491    5.2424 C   0  0  0  0  0  0  0  0  0  0  0  0
   -2.1714   27.1932    5.8493 C   0  0  0  0  0  0  0  0  0  0  0  0
   -2.8686   28.5341    6.1160 C   0  0  0  0  0  0  0  0  0  0  0  0
   -3.7416   28.9864    5.0236 N   0  0  0  0  0  0  0  0  0  0  0  0
   -3.0456   29.2707    3.7605 C   0  0  0  0  0  0  0  0  0  0  0  0
   -2.0476   30.4184    3.8752 C   0  0  0  0  0  0  0  0  0  0  0  0
   -4.8116   27.9899    4.8342 C   0  0  0  0  0  0  0  0  0  0  0  0
  1  2  2  3
  2  3  1  0
  2  4  1  0
  4  5  1  0
  5  6  2  0
  6  7  1  0
  7  8  2  0
  8  9  1  0
  9 10  2  0
 10 11  1  0
 11 12  1  0
 12 13  1  0
 13 14  1  0
 14 15  1  0
 13 16  1  0
 10  5  1  0
 16  9  1  0
M  END
>  <Energy>  (566) 
-1.4804968205777689

>  <Energy_Delta>  (566) 
7.3926998364625893

>  <std_smi>  (566) 
CCN1CCc2c(cccc2NC(C)=O)C1

>  <enum_smi>  (566) 
C=C(O)Nc1cccc2c1CCN(CC)C2

>  <enum_code>  (566) 
T

>  <parent_uuid>  (566) 
159e9a67-9ddd-4f06-8bc8-f63c27ed1469

>  <o3da_score>  (566) 
74.411934362222894

>  <o3da_score_rel>  (566) 
0.29624472244339961

>  <o3da_align>  (566) 
0.20084132586531853

>  <RMSD>  (566) 
0.16936194571062893

>  <CONVERGED>  (566) 
0

>  <ENERGY>  (566) 
-7.0037619924714001

$$$$
5d9c0352-244e-4fcc-8032-785421745f4c
     RDKit          3D

 16 17  0  0  0  0  0  0  0  0999 V2000
   -1.4899   27.6312   -1.8120 C   0  0  0  0  0  0  0  0  0  0  0  0
   -1.1625   28.0074   -0.5746 C   0  0  0  0  0  0  0  0  0  0  0  0
    0.1344   28.3903   -0.3397 O   0  0  0  0  0  0  0  0  0  0  0  0
   -2.0020   27.9498    0.5074 N   0  0  0  0  0  0  0  0  0  0  0  0
   -2.1282   28.8983    1.5551 C   0  0  0  0  0  0  0  0  0  0  0  0
   -1.5749   30.1845    1.4630 C   0  0  0  0  0  0  0  0  0  0  0  0
   -1.7022   31.1017    2.5056 C   0  0  0  0  0  0  0  0  0  0  0  0
   -2.3866   30.7478    3.6633 C   0  0  0  0  0  0  0  0  0  0  0  0
   -2.9561   29.4737    3.7893 C   0  0  0  0  0  0  0  0  0  0  0  0
   -2.8090   28.5374    2.7411 C   0  0  0  0  0  0  0  0  0  0  0  0
   -3.4297   27.1638    2.8927 C   0  0  0  0  0  0  0  0  0  0  0  0
   -3.8752   26.8493    4.3276 C   0  0  0  0  0  0  0  0  0  0  0  0
   -4.5703   27.9580    4.9998 N   0  0  0  0  0  0  0  0  0  0  0  0
   -5.8509   28.2818    4.3560 C   0  0  0  0  0  0  0  0  0  0  0  0
   -6.7562   29.1157    5.2572 C   0  0  0  0  0  0  0  0  0  0  0  0
   -3.6507   29.1057    5.0858 C   0  0  0  0  0  0  0  0  0  0  0  0
  1  2  2  3
  2  3  1  0
  2  4  1  0
  4  5  1  0
  5  6  2  0
  6  7  1  0
  7  8  2  0
  8  9  1  0
  9 10  2  0
 10 11  1  0
 11 12  1  0
 12 13  1  0
 13 14  1  0
 14 15  1  0
 13 16  1  0
 10  5  1  0
 16  9  1  0
M  END
>  <Energy>  (567) 
-1.2726651413080172

>  <Energy_Delta>  (567) 
7.6005315157323405

>  <std_smi>  (567) 
CCN1CCc2c(cccc2NC(C)=O)C1

>  <enum_smi>  (567) 
C=C(O)Nc1cccc2c1CCN(CC)C2

>  <enum_code>  (567) 
T

>  <parent_uuid>  (567) 
159e9a67-9ddd-4f06-8bc8-f63c27ed1469

>  <o3da_score>  (567) 
74.565358195821673

>  <o3da_score_rel>  (567) 
0.29685552501680712

>  <o3da_align>  (567) 
0.36253821836340511

>  <RMSD>  (567) 
0.16851637078987827

>  <CONVERGED>  (567) 
0

>  <ENERGY>  (567) 
-6.801742824547433

$$$$
5d9c0352-244e-4fcc-8032-785421745f4c
     RDKit          3D

 16 17  0  0  0  0  0  0  0  0999 V2000
   -6.8684   27.8528    5.7743 C   0  0  0  0  0  0  0  0  0  0  0  0
   -5.8872   28.4191    5.0694 C   0  0  0  0  0  0  0  0  0  0  0  0
   -6.0679   29.7192    4.6667 O   0  0  0  0  0  0  0  0  0  0  0  0
   -4.6739   27.8923    4.7076 N   0  0  0  0  0  0  0  0  0  0  0  0
   -4.2976   26.5271    4.6869 C   0  0  0  0  0  0  0  0  0  0  0  0
   -5.1993   25.5520    4.2271 C   0  0  0  0  0  0  0  0  0  0  0  0
   -4.8620   24.1999    4.2040 C   0  0  0  0  0  0  0  0  0  0  0  0
   -3.6074   23.7936    4.6408 C   0  0  0  0  0  0  0  0  0  0  0  0
   -2.6747   24.7368    5.0952 C   0  0  0  0  0  0  0  0  0  0  0  0
   -3.0048   26.1132    5.0874 C   0  0  0  0  0  0  0  0  0  0  0  0
   -1.9726   27.1027    5.5889 C   0  0  0  0  0  0  0  0  0  0  0  0
   -0.5536   26.5255    5.6877 C   0  0  0  0  0  0  0  0  0  0  0  0
   -0.5810   25.2252    6.3570 N   0  0  0  0  0  0  0  0  0  0  0  0
    0.7433   24.7517    6.7705 C   0  0  0  0  0  0  0  0  0  0  0  0
    1.7849   24.5625    5.6710 C   0  0  0  0  0  0  0  0  0  0  0  0
   -1.3032   24.2530    5.5271 C   0  0  0  0  0  0  0  0  0  0  0  0
  1  2  2  3
  2  3  1  0
  2  4  1  0
  4  5  1  0
  5  6  2  0
  6  7  1  0
  7  8  2  0
  8  9  1  0
  9 10  2  0
 10 11  1  0
 11 12  1  0
 12 13  1  0
 13 14  1  0
 14 15  1  0
 13 16  1  0
 10  5  1  0
 16  9  1  0
M  END
>  <Energy>  (568) 
-1.1885397301860929

>  <Energy_Delta>  (568) 
7.6846569268542648

>  <std_smi>  (568) 
CCN1CCc2c(cccc2NC(C)=O)C1

>  <enum_smi>  (568) 
C=C(O)Nc1cccc2c1CCN(CC)C2

>  <enum_code>  (568) 
T

>  <parent_uuid>  (568) 
159e9a67-9ddd-4f06-8bc8-f63c27ed1469

>  <o3da_score>  (568) 
70.75009607381557

>  <o3da_score_rel>  (568) 
0.28166641216723826

>  <o3da_align>  (568) 
0.21412646985050329

>  <RMSD>  (568) 
7.2290777810086156e-05

>  <CONVERGED>  (568) 
0

>  <ENERGY>  (568) 
-1.1885397308667258

$$$$
5d9c0352-244e-4fcc-8032-785421745f4c
     RDKit          3D

 16 17  0  0  0  0  0  0  0  0999 V2000
   -0.3144   22.1375    6.4363 C   0  0  0  0  0  0  0  0  0  0  0  0
   -0.9276   22.8929    5.5236 C   0  0  0  0  0  0  0  0  0  0  0  0
   -0.9224   22.4607    4.2209 O   0  0  0  0  0  0  0  0  0  0  0  0
   -1.4820   24.1216    5.7712 N   0  0  0  0  0  0  0  0  0  0  0  0
   -2.6935   24.6424    5.2557 C   0  0  0  0  0  0  0  0  0  0  0  0
   -3.6355   23.8377    4.5960 C   0  0  0  0  0  0  0  0  0  0  0  0
   -4.8232   24.3733    4.0893 C   0  0  0  0  0  0  0  0  0  0  0  0
   -5.0976   25.7294    4.2354 C   0  0  0  0  0  0  0  0  0  0  0  0
   -4.1728   26.5580    4.8732 C   0  0  0  0  0  0  0  0  0  0  0  0
   -2.9672   26.0179    5.3717 C   0  0  0  0  0  0  0  0  0  0  0  0
   -2.0254   27.0146    6.0076 C   0  0  0  0  0  0  0  0  0  0  0  0
   -2.0067   28.2912    5.1506 C   0  0  0  0  0  0  0  0  0  0  0  0
   -3.3219   28.9295    4.9391 N   0  0  0  0  0  0  0  0  0  0  0  0
   -3.4004   29.6274    3.6483 C   0  0  0  0  0  0  0  0  0  0  0  0
   -2.3823   30.7569    3.5196 C   0  0  0  0  0  0  0  0  0  0  0  0
   -4.4641   28.0183    5.1338 C   0  0  0  0  0  0  0  0  0  0  0  0
  1  2  2  3
  2  3  1  0
  2  4  1  0
  4  5  1  0
  5  6  2  0
  6  7  1  0
  7  8  2  0
  8  9  1  0
  9 10  2  0
 10 11  1  0
 11 12  1  0
 12 13  1  0
 13 14  1  0
 14 15  1  0
 13 16  1  0
 10  5  1  0
 16  9  1  0
M  END
>  <Energy>  (569) 
2.854074940037223

>  <Energy_Delta>  (569) 
11.727271597077582

>  <std_smi>  (569) 
CCN1CCc2c(cccc2NC(C)=O)C1

>  <enum_smi>  (569) 
C=C(O)Nc1cccc2c1CCN(CC)C2

>  <enum_code>  (569) 
T

>  <parent_uuid>  (569) 
159e9a67-9ddd-4f06-8bc8-f63c27ed1469

>  <o3da_score>  (569) 
74.06170663817727

>  <o3da_score_rel>  (569) 
0.29485041498732911

>  <o3da_align>  (569) 
0.22343816190158194

>  <RMSD>  (569) 
0.15133591307418479

>  <CONVERGED>  (569) 
0

>  <ENERGY>  (569) 
-2.7177843083477597

$$$$
5d9c0352-244e-4fcc-8032-785421745f4c
     RDKit          3D

 16 17  0  0  0  0  0  0  0  0999 V2000
   -2.0318   22.4244    7.0769 C   0  0  0  0  0  0  0  0  0  0  0  0
   -1.1868   23.1297    6.3227 C   0  0  0  0  0  0  0  0  0  0  0  0
    0.1333   22.7515    6.3325 O   0  0  0  0  0  0  0  0  0  0  0  0
   -1.4472   24.2253    5.5431 N   0  0  0  0  0  0  0  0  0  0  0  0
   -2.7078   24.7089    5.1246 C   0  0  0  0  0  0  0  0  0  0  0  0
   -3.6751   23.8195    4.6292 C   0  0  0  0  0  0  0  0  0  0  0  0
   -4.9235   24.2685    4.2043 C   0  0  0  0  0  0  0  0  0  0  0  0
   -5.2278   25.6232    4.2657 C   0  0  0  0  0  0  0  0  0  0  0  0
   -4.2861   26.5434    4.7493 C   0  0  0  0  0  0  0  0  0  0  0  0
   -3.0275   26.0848    5.2021 C   0  0  0  0  0  0  0  0  0  0  0  0
   -2.0270   27.0911    5.7287 C   0  0  0  0  0  0  0  0  0  0  0  0
   -2.6105   28.4865    5.9731 C   0  0  0  0  0  0  0  0  0  0  0  0
   -3.5705   28.9471    4.9744 N   0  0  0  0  0  0  0  0  0  0  0  0
   -3.0065   29.4530    3.7240 C   0  0  0  0  0  0  0  0  0  0  0  0
   -2.5633   28.4574    2.6580 C   0  0  0  0  0  0  0  0  0  0  0  0
   -4.6803   28.0039    4.8334 C   0  0  0  0  0  0  0  0  0  0  0  0
  1  2  2  3
  2  3  1  0
  2  4  1  0
  4  5  1  0
  5  6  2  0
  6  7  1  0
  7  8  2  0
  8  9  1  0
  9 10  2  0
 10 11  1  0
 11 12  1  0
 12 13  1  0
 13 14  1  0
 14 15  1  0
 13 16  1  0
 10  5  1  0
 16  9  1  0
M  END
>  <Energy>  (570) 
3.7772615245041052

>  <Energy_Delta>  (570) 
12.650458181544463

>  <std_smi>  (570) 
CCN1CCc2c(cccc2NC(C)=O)C1

>  <enum_smi>  (570) 
C=C(O)Nc1cccc2c1CCN(CC)C2

>  <enum_code>  (570) 
T

>  <parent_uuid>  (570) 
159e9a67-9ddd-4f06-8bc8-f63c27ed1469

>  <o3da_score>  (570) 
74.92977523220388

>  <o3da_score_rel>  (570) 
0.2983063221869382

>  <o3da_align>  (570) 
0.11031739486636637

>  <RMSD>  (570) 
0.077572997345482855

>  <CONVERGED>  (570) 
0

>  <ENERGY>  (570) 
2.7198947709566834

$$$$
373c04e7-4287-447d-9834-40d12fbc9822
     RDKit          3D

 16 17  0  0  0  0  0  0  0  0999 V2000
   -6.9760   27.6003    3.8722 C   0  0  0  0  0  0  0  0  0  0  0  0
   -5.9883   28.3980    4.7172 C   0  0  0  0  0  0  0  0  0  0  0  0
   -4.6049   27.9113    4.6012 N   0  0  0  0  0  0  0  0  0  0  0  0
   -3.6842   28.8374    5.2831 C   0  0  0  0  0  0  0  0  0  0  0  0
   -2.2261   28.4679    4.9907 C   0  0  0  0  0  0  0  0  0  0  0  0
   -1.9391   27.0039    5.2168 C   0  0  0  0  0  0  0  0  0  0  0  0
   -3.0113   26.0914    5.2728 C   0  0  0  0  0  0  0  0  0  0  0  0
   -2.7466   24.7299    5.4874 C   0  0  0  0  0  0  0  0  0  0  0  0
   -1.4369   24.2766    5.6286 C   0  0  0  0  0  0  0  0  0  0  0  0
   -0.3789   25.1796    5.5485 C   0  0  0  0  0  0  0  0  0  0  0  0
   -0.6156   26.5391    5.3188 C   0  0  0  0  0  0  0  0  0  0  0  0
    0.4742   27.4191    5.2388 N   0  0  0  0  0  0  0  0  0  0  0  0
    1.0434   27.6024    4.0944 C   0  0  0  0  0  0  0  0  0  0  0  0
    0.6854   26.9649    2.7819 C   0  0  0  0  0  0  0  0  0  0  0  0
    2.0980   28.4390    4.0426 O   0  0  0  0  0  0  0  0  0  0  0  0
   -4.4494   26.5618    5.1781 C   0  0  0  0  0  0  0  0  0  0  0  0
  1  2  1  0
  2  3  1  0
  3  4  1  0
  4  5  1  0
  5  6  1  0
  6  7  2  0
  7  8  1  0
  8  9  2  0
  9 10  1  0
 10 11  2  0
 11 12  1  0
 12 13  2  3
 13 14  1  0
 13 15  1  0
  7 16  1  0
 16  3  1  0
 11  6  1  0
M  END
>  <Energy>  (571) 
5.9201779353979944

>  <Energy_Delta>  (571) 
0

>  <std_smi>  (571) 
CCN1CCc2c(cccc2NC(C)=O)C1

>  <enum_smi>  (571) 
CCN1CCc2c(cccc2N=C(C)O)C1

>  <enum_code>  (571) 
T

>  <parent_uuid>  (571) 
159e9a67-9ddd-4f06-8bc8-f63c27ed1469

>  <o3da_score>  (571) 
64.285710337384899

>  <o3da_score_rel>  (571) 
0.25593075330190179

>  <o3da_align>  (571) 
0.30035323971761985

>  <RMSD>  (571) 
0.010793170835142012

>  <CONVERGED>  (571) 
0

>  <ENERGY>  (571) 
14.79033111102606

$$$$
373c04e7-4287-447d-9834-40d12fbc9822
     RDKit          3D

 16 17  0  0  0  0  0  0  0  0999 V2000
   -6.1902   28.4949    6.6704 C   0  0  0  0  0  0  0  0  0  0  0  0
   -5.1874   27.4909    6.1118 C   0  0  0  0  0  0  0  0  0  0  0  0
   -4.5944   27.9170    4.8347 N   0  0  0  0  0  0  0  0  0  0  0  0
   -3.7903   26.8241    4.2609 C   0  0  0  0  0  0  0  0  0  0  0  0
   -3.3444   27.1676    2.8357 C   0  0  0  0  0  0  0  0  0  0  0  0
   -2.7204   28.5377    2.7344 C   0  0  0  0  0  0  0  0  0  0  0  0
   -2.9438   29.4752    3.7622 C   0  0  0  0  0  0  0  0  0  0  0  0
   -2.3607   30.7486    3.6719 C   0  0  0  0  0  0  0  0  0  0  0  0
   -1.5801   31.0937    2.5707 C   0  0  0  0  0  0  0  0  0  0  0  0
   -1.3820   30.1711    1.5456 C   0  0  0  0  0  0  0  0  0  0  0  0
   -1.9660   28.9012    1.6043 C   0  0  0  0  0  0  0  0  0  0  0  0
   -1.7494   27.9994    0.5516 N   0  0  0  0  0  0  0  0  0  0  0  0
   -2.5485   28.0229   -0.4623 C   0  0  0  0  0  0  0  0  0  0  0  0
   -3.7248   28.9322   -0.6794 C   0  0  0  0  0  0  0  0  0  0  0  0
   -2.3134   27.1597   -1.4695 O   0  0  0  0  0  0  0  0  0  0  0  0
   -3.7422   29.1107    4.9985 C   0  0  0  0  0  0  0  0  0  0  0  0
  1  2  1  0
  2  3  1  0
  3  4  1  0
  4  5  1  0
  5  6  1  0
  6  7  2  0
  7  8  1  0
  8  9  2  0
  9 10  1  0
 10 11  2  0
 11 12  1  0
 12 13  2  3
 13 14  1  0
 13 15  1  0
  7 16  1  0
 16  3  1  0
 11  6  1  0
M  END
>  <Energy>  (572) 
5.9201779365193765

>  <Energy_Delta>  (572) 
1.1213820982902689e-09

>  <std_smi>  (572) 
CCN1CCc2c(cccc2NC(C)=O)C1

>  <enum_smi>  (572) 
CCN1CCc2c(cccc2N=C(C)O)C1

>  <enum_code>  (572) 
T

>  <parent_uuid>  (572) 
159e9a67-9ddd-4f06-8bc8-f63c27ed1469

>  <o3da_score>  (572) 
67.29691660059963

>  <o3da_score_rel>  (572) 
0.26791880295161963

>  <o3da_align>  (572) 
0.33968949997888448

>  <RMSD>  (572) 
0.010784133161835517

>  <CONVERGED>  (572) 
0

>  <ENERGY>  (572) 
14.790331110921947

$$$$
373c04e7-4287-447d-9834-40d12fbc9822
     RDKit          3D

 16 17  0  0  0  0  0  0  0  0999 V2000
   -6.1901   28.4950    6.6705 C   0  0  0  0  0  0  0  0  0  0  0  0
   -5.1874   27.4909    6.1118 C   0  0  0  0  0  0  0  0  0  0  0  0
   -4.5944   27.9170    4.8348 N   0  0  0  0  0  0  0  0  0  0  0  0
   -3.7903   26.8241    4.2609 C   0  0  0  0  0  0  0  0  0  0  0  0
   -3.3445   27.1676    2.8357 C   0  0  0  0  0  0  0  0  0  0  0  0
   -2.7204   28.5377    2.7344 C   0  0  0  0  0  0  0  0  0  0  0  0
   -2.9438   29.4752    3.7622 C   0  0  0  0  0  0  0  0  0  0  0  0
   -2.3606   30.7486    3.6719 C   0  0  0  0  0  0  0  0  0  0  0  0
   -1.5801   31.0937    2.5707 C   0  0  0  0  0  0  0  0  0  0  0  0
   -1.3820   30.1711    1.5456 C   0  0  0  0  0  0  0  0  0  0  0  0
   -1.9661   28.9012    1.6043 C   0  0  0  0  0  0  0  0  0  0  0  0
   -1.7494   27.9994    0.5515 N   0  0  0  0  0  0  0  0  0  0  0  0
   -2.5486   28.0230   -0.4623 C   0  0  0  0  0  0  0  0  0  0  0  0
   -3.7249   28.9322   -0.6794 C   0  0  0  0  0  0  0  0  0  0  0  0
   -2.3135   27.1598   -1.4695 O   0  0  0  0  0  0  0  0  0  0  0  0
   -3.7421   29.1107    4.9985 C   0  0  0  0  0  0  0  0  0  0  0  0
  1  2  1  0
  2  3  1  0
  3  4  1  0
  4  5  1  0
  5  6  1  0
  6  7  2  0
  7  8  1  0
  8  9  2  0
  9 10  1  0
 10 11  2  0
 11 12  1  0
 12 13  2  3
 13 14  1  0
 13 15  1  0
  7 16  1  0
 16  3  1  0
 11  6  1  0
M  END
>  <Energy>  (573) 
5.9201779367393348

>  <Energy_Delta>  (573) 
1.3413403721074246e-09

>  <std_smi>  (573) 
CCN1CCc2c(cccc2NC(C)=O)C1

>  <enum_smi>  (573) 
CCN1CCc2c(cccc2N=C(C)O)C1

>  <enum_code>  (573) 
T

>  <parent_uuid>  (573) 
159e9a67-9ddd-4f06-8bc8-f63c27ed1469

>  <o3da_score>  (573) 
67.296824842587341

>  <o3da_score_rel>  (573) 
0.26791843764964068

>  <o3da_align>  (573) 
0.33969196748780744

>  <RMSD>  (573) 
0.010786540638643908

>  <CONVERGED>  (573) 
0

>  <ENERGY>  (573) 
14.790331110919748

$$$$
373c04e7-4287-447d-9834-40d12fbc9822
     RDKit          3D

 16 17  0  0  0  0  0  0  0  0999 V2000
   -1.4755   24.1718    5.9379 C   0  0  0  0  0  0  0  0  0  0  0  0
   -2.8562   24.7393    5.6262 C   0  0  0  0  0  0  0  0  0  0  0  0
   -2.7944   26.0196    4.9054 N   0  0  0  0  0  0  0  0  0  0  0  0
   -2.3597   25.8526    3.5086 C   0  0  0  0  0  0  0  0  0  0  0  0
   -2.1306   27.2171    2.8459 C   0  0  0  0  0  0  0  0  0  0  0  0
   -3.2740   28.1785    3.0617 C   0  0  0  0  0  0  0  0  0  0  0  0
   -4.2079   27.9217    4.0848 C   0  0  0  0  0  0  0  0  0  0  0  0
   -5.2731   28.8127    4.2859 C   0  0  0  0  0  0  0  0  0  0  0  0
   -5.4020   29.9518    3.4943 C   0  0  0  0  0  0  0  0  0  0  0  0
   -4.4627   30.2137    2.4989 C   0  0  0  0  0  0  0  0  0  0  0  0
   -3.3829   29.3491    2.2898 C   0  0  0  0  0  0  0  0  0  0  0  0
   -2.4534   29.6467    1.2820 N   0  0  0  0  0  0  0  0  0  0  0  0
   -1.4459   30.4020    1.5679 C   0  0  0  0  0  0  0  0  0  0  0  0
   -1.1267   31.0402    2.8901 C   0  0  0  0  0  0  0  0  0  0  0  0
   -0.5741   30.6889    0.5817 O   0  0  0  0  0  0  0  0  0  0  0  0
   -4.1253   26.6602    4.9182 C   0  0  0  0  0  0  0  0  0  0  0  0
  1  2  1  0
  2  3  1  0
  3  4  1  0
  4  5  1  0
  5  6  1  0
  6  7  2  0
  7  8  1  0
  8  9  2  0
  9 10  1  0
 10 11  2  0
 11 12  1  0
 12 13  2  3
 13 14  1  0
 13 15  1  0
  7 16  1  0
 16  3  1  0
 11  6  1  0
M  END
>  <Energy>  (574) 
6.1046037438521932

>  <Energy_Delta>  (574) 
0.18442580845419876

>  <std_smi>  (574) 
CCN1CCc2c(cccc2NC(C)=O)C1

>  <enum_smi>  (574) 
CCN1CCc2c(cccc2N=C(C)O)C1

>  <enum_code>  (574) 
T

>  <parent_uuid>  (574) 
159e9a67-9ddd-4f06-8bc8-f63c27ed1469

>  <o3da_score>  (574) 
71.375324332932792

>  <o3da_score_rel>  (574) 
0.2841555367098732

>  <o3da_align>  (574) 
0.65655384950234197

>  <RMSD>  (574) 
0.010724293271571834

>  <CONVERGED>  (574) 
0

>  <ENERGY>  (574) 
14.974868066756716

$$$$
373c04e7-4287-447d-9834-40d12fbc9822
     RDKit          3D

 16 17  0  0  0  0  0  0  0  0999 V2000
   -1.4755   24.1718    5.9379 C   0  0  0  0  0  0  0  0  0  0  0  0
   -2.8562   24.7393    5.6262 C   0  0  0  0  0  0  0  0  0  0  0  0
   -2.7944   26.0196    4.9054 N   0  0  0  0  0  0  0  0  0  0  0  0
   -2.3597   25.8526    3.5086 C   0  0  0  0  0  0  0  0  0  0  0  0
   -2.1306   27.2171    2.8459 C   0  0  0  0  0  0  0  0  0  0  0  0
   -3.2740   28.1785    3.0617 C   0  0  0  0  0  0  0  0  0  0  0  0
   -4.2080   27.9217    4.0848 C   0  0  0  0  0  0  0  0  0  0  0  0
   -5.2731   28.8127    4.2859 C   0  0  0  0  0  0  0  0  0  0  0  0
   -5.4020   29.9517    3.4943 C   0  0  0  0  0  0  0  0  0  0  0  0
   -4.4627   30.2137    2.4989 C   0  0  0  0  0  0  0  0  0  0  0  0
   -3.3829   29.3491    2.2898 C   0  0  0  0  0  0  0  0  0  0  0  0
   -2.4534   29.6467    1.2820 N   0  0  0  0  0  0  0  0  0  0  0  0
   -1.4459   30.4020    1.5679 C   0  0  0  0  0  0  0  0  0  0  0  0
   -1.1268   31.0402    2.8902 C   0  0  0  0  0  0  0  0  0  0  0  0
   -0.5741   30.6889    0.5818 O   0  0  0  0  0  0  0  0  0  0  0  0
   -4.1253   26.6602    4.9182 C   0  0  0  0  0  0  0  0  0  0  0  0
  1  2  1  0
  2  3  1  0
  3  4  1  0
  4  5  1  0
  5  6  1  0
  6  7  2  0
  7  8  1  0
  8  9  2  0
  9 10  1  0
 10 11  2  0
 11 12  1  0
 12 13  2  3
 13 14  1  0
 13 15  1  0
  7 16  1  0
 16  3  1  0
 11  6  1  0
M  END
>  <Energy>  (575) 
6.1046037456204054

>  <Energy_Delta>  (575) 
0.184425810222411

>  <std_smi>  (575) 
CCN1CCc2c(cccc2NC(C)=O)C1

>  <enum_smi>  (575) 
CCN1CCc2c(cccc2N=C(C)O)C1

>  <enum_code>  (575) 
T

>  <parent_uuid>  (575) 
159e9a67-9ddd-4f06-8bc8-f63c27ed1469

>  <o3da_score>  (575) 
71.375424977405331

>  <o3da_score_rel>  (575) 
0.28415593739014161

>  <o3da_align>  (575) 
0.65654841144146336

>  <RMSD>  (575) 
0.010744824459627451

>  <CONVERGED>  (575) 
0

>  <ENERGY>  (575) 
14.974868066745092

$$$$
373c04e7-4287-447d-9834-40d12fbc9822
     RDKit          3D

 16 17  0  0  0  0  0  0  0  0999 V2000
   -4.9029   27.8150    5.0742 C   0  0  0  0  0  0  0  0  0  0  0  0
   -3.7400   27.7201    4.0922 C   0  0  0  0  0  0  0  0  0  0  0  0
   -3.2958   29.0302    3.5937 N   0  0  0  0  0  0  0  0  0  0  0  0
   -2.3155   28.8576    2.5101 C   0  0  0  0  0  0  0  0  0  0  0  0
   -1.9973   30.1972    1.8366 C   0  0  0  0  0  0  0  0  0  0  0  0
   -1.6551   31.2816    2.8285 C   0  0  0  0  0  0  0  0  0  0  0  0
   -2.0479   31.1311    4.1738 C   0  0  0  0  0  0  0  0  0  0  0  0
   -1.7792   32.1599    5.0899 C   0  0  0  0  0  0  0  0  0  0  0  0
   -1.1646   33.3378    4.6718 C   0  0  0  0  0  0  0  0  0  0  0  0
   -0.7973   33.4909    3.3366 C   0  0  0  0  0  0  0  0  0  0  0  0
   -1.0205   32.4656    2.4105 C   0  0  0  0  0  0  0  0  0  0  0  0
   -0.6492   32.6610    1.0713 N   0  0  0  0  0  0  0  0  0  0  0  0
    0.5671   32.4145    0.7160 C   0  0  0  0  0  0  0  0  0  0  0  0
    1.6915   31.9231    1.5823 C   0  0  0  0  0  0  0  0  0  0  0  0
    0.9062   32.6359   -0.5687 O   0  0  0  0  0  0  0  0  0  0  0  0
   -2.7071   29.8565    4.6636 C   0  0  0  0  0  0  0  0  0  0  0  0
  1  2  1  0
  2  3  1  0
  3  4  1  0
  4  5  1  0
  5  6  1  0
  6  7  2  0
  7  8  1  0
  8  9  2  0
  9 10  1  0
 10 11  2  0
 11 12  1  0
 12 13  2  3
 13 14  1  0
 13 15  1  0
  7 16  1  0
 16  3  1  0
 11  6  1  0
M  END
>  <Energy>  (576) 
6.6254119414275232

>  <Energy_Delta>  (576) 
0.70523400602952879

>  <std_smi>  (576) 
CCN1CCc2c(cccc2NC(C)=O)C1

>  <enum_smi>  (576) 
CCN1CCc2c(cccc2N=C(C)O)C1

>  <enum_code>  (576) 
T

>  <parent_uuid>  (576) 
159e9a67-9ddd-4f06-8bc8-f63c27ed1469

>  <o3da_score>  (576) 
83.194502750740739

>  <o3da_score_rel>  (576) 
0.3312094032690806

>  <o3da_align>  (576) 
0.51381948558959856

>  <RMSD>  (576) 
0.019283086393454912

>  <CONVERGED>  (576) 
0

>  <ENERGY>  (576) 
16.028633777448491

$$$$
373c04e7-4287-447d-9834-40d12fbc9822
     RDKit          3D

 16 17  0  0  0  0  0  0  0  0999 V2000
   -5.3220   25.3043    6.1930 C   0  0  0  0  0  0  0  0  0  0  0  0
   -4.9423   25.6071    4.7473 C   0  0  0  0  0  0  0  0  0  0  0  0
   -4.0925   26.7992    4.6103 N   0  0  0  0  0  0  0  0  0  0  0  0
   -3.6018   26.9193    3.2283 C   0  0  0  0  0  0  0  0  0  0  0  0
   -2.5514   28.0293    3.1111 C   0  0  0  0  0  0  0  0  0  0  0  0
   -3.0031   29.3274    3.7340 C   0  0  0  0  0  0  0  0  0  0  0  0
   -4.0528   29.3095    4.6744 C   0  0  0  0  0  0  0  0  0  0  0  0
   -4.4418   30.5060    5.2965 C   0  0  0  0  0  0  0  0  0  0  0  0
   -3.7751   31.6973    5.0200 C   0  0  0  0  0  0  0  0  0  0  0  0
   -2.7240   31.7062    4.1055 C   0  0  0  0  0  0  0  0  0  0  0  0
   -2.3404   30.5341    3.4440 C   0  0  0  0  0  0  0  0  0  0  0  0
   -1.2684   30.5790    2.5395 N   0  0  0  0  0  0  0  0  0  0  0  0
   -1.4938   30.9299    1.3178 C   0  0  0  0  0  0  0  0  0  0  0  0
   -2.8098   31.3143    0.7043 C   0  0  0  0  0  0  0  0  0  0  0  0
   -0.4444   30.9919    0.4755 O   0  0  0  0  0  0  0  0  0  0  0  0
   -4.8072   28.0322    4.9882 C   0  0  0  0  0  0  0  0  0  0  0  0
  1  2  1  0
  2  3  1  0
  3  4  1  0
  4  5  1  0
  5  6  1  0
  6  7  2  0
  7  8  1  0
  8  9  2  0
  9 10  1  0
 10 11  2  0
 11 12  1  0
 12 13  2  3
 13 14  1  0
 13 15  1  0
  7 16  1  0
 16  3  1  0
 11  6  1  0
M  END
>  <Energy>  (577) 
6.6254119417474246

>  <Energy_Delta>  (577) 
0.70523400634943023

>  <std_smi>  (577) 
CCN1CCc2c(cccc2NC(C)=O)C1

>  <enum_smi>  (577) 
CCN1CCc2c(cccc2N=C(C)O)C1

>  <enum_code>  (577) 
T

>  <parent_uuid>  (577) 
159e9a67-9ddd-4f06-8bc8-f63c27ed1469

>  <o3da_score>  (577) 
67.320632343626656

>  <o3da_score_rel>  (577) 
0.26801321877040996

>  <o3da_align>  (577) 
0.49120387170730501

>  <RMSD>  (577) 
0.019278110283946746

>  <CONVERGED>  (577) 
0

>  <ENERGY>  (577) 
16.028633777443886

$$$$
373c04e7-4287-447d-9834-40d12fbc9822
     RDKit          3D

 16 17  0  0  0  0  0  0  0  0999 V2000
   -4.9030   27.8150    5.0742 C   0  0  0  0  0  0  0  0  0  0  0  0
   -3.7400   27.7201    4.0922 C   0  0  0  0  0  0  0  0  0  0  0  0
   -3.2959   29.0301    3.5938 N   0  0  0  0  0  0  0  0  0  0  0  0
   -2.3156   28.8576    2.5101 C   0  0  0  0  0  0  0  0  0  0  0  0
   -1.9973   30.1972    1.8366 C   0  0  0  0  0  0  0  0  0  0  0  0
   -1.6551   31.2816    2.8285 C   0  0  0  0  0  0  0  0  0  0  0  0
   -2.0479   31.1311    4.1738 C   0  0  0  0  0  0  0  0  0  0  0  0
   -1.7792   32.1599    5.0899 C   0  0  0  0  0  0  0  0  0  0  0  0
   -1.1646   33.3378    4.6718 C   0  0  0  0  0  0  0  0  0  0  0  0
   -0.7973   33.4909    3.3366 C   0  0  0  0  0  0  0  0  0  0  0  0
   -1.0205   32.4656    2.4105 C   0  0  0  0  0  0  0  0  0  0  0  0
   -0.6492   32.6610    1.0714 N   0  0  0  0  0  0  0  0  0  0  0  0
    0.5671   32.4144    0.7161 C   0  0  0  0  0  0  0  0  0  0  0  0
    1.6915   31.9231    1.5823 C   0  0  0  0  0  0  0  0  0  0  0  0
    0.9062   32.6359   -0.5687 O   0  0  0  0  0  0  0  0  0  0  0  0
   -2.7071   29.8565    4.6636 C   0  0  0  0  0  0  0  0  0  0  0  0
  1  2  1  0
  2  3  1  0
  3  4  1  0
  4  5  1  0
  5  6  1  0
  6  7  2  0
  7  8  1  0
  8  9  2  0
  9 10  1  0
 10 11  2  0
 11 12  1  0
 12 13  2  3
 13 14  1  0
 13 15  1  0
  7 16  1  0
 16  3  1  0
 11  6  1  0
M  END
>  <Energy>  (578) 
6.625411941981703

>  <Energy_Delta>  (578) 
0.70523400658370861

>  <std_smi>  (578) 
CCN1CCc2c(cccc2NC(C)=O)C1

>  <enum_smi>  (578) 
CCN1CCc2c(cccc2N=C(C)O)C1

>  <enum_code>  (578) 
T

>  <parent_uuid>  (578) 
159e9a67-9ddd-4f06-8bc8-f63c27ed1469

>  <o3da_score>  (578) 
83.194620771393176

>  <o3da_score_rel>  (578) 
0.33120987312644584

>  <o3da_align>  (578) 
0.51381785462577423

>  <RMSD>  (578) 
0.019273350061657403

>  <CONVERGED>  (578) 
0

>  <ENERGY>  (578) 
16.028633777475015

$$$$
373c04e7-4287-447d-9834-40d12fbc9822
     RDKit          3D

 16 17  0  0  0  0  0  0  0  0999 V2000
   -2.5886   26.2102    4.5016 C   0  0  0  0  0  0  0  0  0  0  0  0
   -3.4356   27.4664    4.3286 C   0  0  0  0  0  0  0  0  0  0  0  0
   -2.6321   28.6556    4.0112 N   0  0  0  0  0  0  0  0  0  0  0  0
   -2.0865   28.6173    2.6460 C   0  0  0  0  0  0  0  0  0  0  0  0
   -1.1148   29.7815    2.4102 C   0  0  0  0  0  0  0  0  0  0  0  0
   -1.6725   31.1149    2.8452 C   0  0  0  0  0  0  0  0  0  0  0  0
   -2.7621   31.1460    3.7385 C   0  0  0  0  0  0  0  0  0  0  0  0
   -3.2499   32.3819    4.1897 C   0  0  0  0  0  0  0  0  0  0  0  0
   -2.6420   33.5704    3.7919 C   0  0  0  0  0  0  0  0  0  0  0  0
   -1.5519   33.5342    2.9249 C   0  0  0  0  0  0  0  0  0  0  0  0
   -1.0695   32.3167    2.4314 C   0  0  0  0  0  0  0  0  0  0  0  0
    0.0389   32.3184    1.5707 N   0  0  0  0  0  0  0  0  0  0  0  0
   -0.1499   32.4993    0.3066 C   0  0  0  0  0  0  0  0  0  0  0  0
   -1.4566   32.7180   -0.4012 C   0  0  0  0  0  0  0  0  0  0  0  0
    0.9320   32.5241   -0.4956 O   0  0  0  0  0  0  0  0  0  0  0  0
   -3.4538   29.8707    4.1724 C   0  0  0  0  0  0  0  0  0  0  0  0
  1  2  1  0
  2  3  1  0
  3  4  1  0
  4  5  1  0
  5  6  1  0
  6  7  2  0
  7  8  1  0
  8  9  2  0
  9 10  1  0
 10 11  2  0
 11 12  1  0
 12 13  2  3
 13 14  1  0
 13 15  1  0
  7 16  1  0
 16  3  1  0
 11  6  1  0
M  END
>  <Energy>  (579) 
6.8069935066489542

>  <Energy_Delta>  (579) 
0.88681557125095978

>  <std_smi>  (579) 
CCN1CCc2c(cccc2NC(C)=O)C1

>  <enum_smi>  (579) 
CCN1CCc2c(cccc2N=C(C)O)C1

>  <enum_code>  (579) 
T

>  <parent_uuid>  (579) 
159e9a67-9ddd-4f06-8bc8-f63c27ed1469

>  <o3da_score>  (579) 
73.910331783911943

>  <o3da_score_rel>  (579) 
0.29424776969835637

>  <o3da_align>  (579) 
0.56516161017583955

>  <RMSD>  (579) 
0.019362752651761992

>  <CONVERGED>  (579) 
0

>  <ENERGY>  (579) 
16.214462903512889

$$$$
373c04e7-4287-447d-9834-40d12fbc9822
     RDKit          3D

 16 17  0  0  0  0  0  0  0  0999 V2000
   -6.3976   26.6119    5.9775 C   0  0  0  0  0  0  0  0  0  0  0  0
   -5.2263   27.5769    6.1272 C   0  0  0  0  0  0  0  0  0  0  0  0
   -4.6116   27.9301    4.8396 N   0  0  0  0  0  0  0  0  0  0  0  0
   -3.8520   26.8148    4.2547 C   0  0  0  0  0  0  0  0  0  0  0  0
   -3.3740   27.1595    2.8377 C   0  0  0  0  0  0  0  0  0  0  0  0
   -2.7069   28.5106    2.7506 C   0  0  0  0  0  0  0  0  0  0  0  0
   -2.9243   29.4521    3.7765 C   0  0  0  0  0  0  0  0  0  0  0  0
   -2.3517   30.7291    3.6744 C   0  0  0  0  0  0  0  0  0  0  0  0
   -1.6055   31.0822    2.5526 C   0  0  0  0  0  0  0  0  0  0  0  0
   -1.4102   30.1552    1.5308 C   0  0  0  0  0  0  0  0  0  0  0  0
   -1.9396   28.8631    1.6254 C   0  0  0  0  0  0  0  0  0  0  0  0
   -1.7338   27.9607    0.5707 N   0  0  0  0  0  0  0  0  0  0  0  0
   -0.6437   27.2700    0.5408 C   0  0  0  0  0  0  0  0  0  0  0  0
    0.4873   27.3025    1.5288 C   0  0  0  0  0  0  0  0  0  0  0  0
   -0.4569   26.4306   -0.4961 O   0  0  0  0  0  0  0  0  0  0  0  0
   -3.7153   29.0892    5.0157 C   0  0  0  0  0  0  0  0  0  0  0  0
  1  2  1  0
  2  3  1  0
  3  4  1  0
  4  5  1  0
  5  6  1  0
  6  7  2  0
  7  8  1  0
  8  9  2  0
  9 10  1  0
 10 11  2  0
 11 12  1  0
 12 13  2  3
 13 14  1  0
 13 15  1  0
  7 16  1  0
 16  3  1  0
 11  6  1  0
M  END
>  <Energy>  (580) 
6.8069935068983654

>  <Energy_Delta>  (580) 
0.88681557150037094

>  <std_smi>  (580) 
CCN1CCc2c(cccc2NC(C)=O)C1

>  <enum_smi>  (580) 
CCN1CCc2c(cccc2N=C(C)O)C1

>  <enum_code>  (580) 
T

>  <parent_uuid>  (580) 
159e9a67-9ddd-4f06-8bc8-f63c27ed1469

>  <o3da_score>  (580) 
67.397257564654893

>  <o3da_score_rel>  (580) 
0.26831827490865218

>  <o3da_align>  (580) 
0.33461616693810181

>  <RMSD>  (580) 
0.019355720015454689

>  <CONVERGED>  (580) 
0

>  <ENERGY>  (580) 
16.21446290359426

$$$$
373c04e7-4287-447d-9834-40d12fbc9822
     RDKit          3D

 16 17  0  0  0  0  0  0  0  0999 V2000
   -2.0883   30.4355    3.8246 C   0  0  0  0  0  0  0  0  0  0  0  0
   -3.0908   29.2887    3.7463 C   0  0  0  0  0  0  0  0  0  0  0  0
   -3.7487   29.0120    5.0310 N   0  0  0  0  0  0  0  0  0  0  0  0
   -2.8401   28.5619    6.0983 C   0  0  0  0  0  0  0  0  0  0  0  0
   -2.1511   27.2201    5.8156 C   0  0  0  0  0  0  0  0  0  0  0  0
   -3.0906   26.1848    5.2400 C   0  0  0  0  0  0  0  0  0  0  0  0
   -4.3572   26.5797    4.7595 C   0  0  0  0  0  0  0  0  0  0  0  0
   -5.2266   25.6141    4.2310 C   0  0  0  0  0  0  0  0  0  0  0  0
   -4.8415   24.2769    4.1637 C   0  0  0  0  0  0  0  0  0  0  0  0
   -3.5814   23.8942    4.6191 C   0  0  0  0  0  0  0  0  0  0  0  0
   -2.6900   24.8405    5.1361 C   0  0  0  0  0  0  0  0  0  0  0  0
   -1.4279   24.4222    5.5830 N   0  0  0  0  0  0  0  0  0  0  0  0
   -0.4611   24.3326    4.7321 C   0  0  0  0  0  0  0  0  0  0  0  0
   -0.5082   24.6243    3.2593 C   0  0  0  0  0  0  0  0  0  0  0  0
    0.7356   23.9075    5.1810 O   0  0  0  0  0  0  0  0  0  0  0  0
   -4.8260   28.0154    4.8798 C   0  0  0  0  0  0  0  0  0  0  0  0
  1  2  1  0
  2  3  1  0
  3  4  1  0
  4  5  1  0
  5  6  1  0
  6  7  2  0
  7  8  1  0
  8  9  2  0
  9 10  1  0
 10 11  2  0
 11 12  1  0
 12 13  2  3
 13 14  1  0
 13 15  1  0
  7 16  1  0
 16  3  1  0
 11  6  1  0
M  END
>  <Energy>  (581) 
7.6827468329094692

>  <Energy_Delta>  (581) 
1.7625688975114748

>  <std_smi>  (581) 
CCN1CCc2c(cccc2NC(C)=O)C1

>  <enum_smi>  (581) 
CCN1CCc2c(cccc2N=C(C)O)C1

>  <enum_code>  (581) 
T

>  <parent_uuid>  (581) 
159e9a67-9ddd-4f06-8bc8-f63c27ed1469

>  <o3da_score>  (581) 
74.677509416127592

>  <o3da_score_rel>  (581) 
0.29730201531995504

>  <o3da_align>  (581) 
0.19611565200641426

>  <RMSD>  (581) 
0.015968226547505012

>  <CONVERGED>  (581) 
0

>  <ENERGY>  (581) 
16.758442368316388

$$$$
373c04e7-4287-447d-9834-40d12fbc9822
     RDKit          3D

 16 17  0  0  0  0  0  0  0  0999 V2000
   -9.3473   24.1558    3.9548 C   0  0  0  0  0  0  0  0  0  0  0  0
   -7.8763   23.8096    4.1612 C   0  0  0  0  0  0  0  0  0  0  0  0
   -7.0577   24.0406    2.9609 N   0  0  0  0  0  0  0  0  0  0  0  0
   -6.9876   25.4484    2.5386 C   0  0  0  0  0  0  0  0  0  0  0  0
   -6.3056   26.3816    3.5484 C   0  0  0  0  0  0  0  0  0  0  0  0
   -5.0487   25.7894    4.1447 C   0  0  0  0  0  0  0  0  0  0  0  0
   -4.7863   24.4110    3.9925 C   0  0  0  0  0  0  0  0  0  0  0  0
   -3.6451   23.8549    4.5891 C   0  0  0  0  0  0  0  0  0  0  0  0
   -2.7949   24.6441    5.3601 C   0  0  0  0  0  0  0  0  0  0  0  0
   -3.0686   26.0003    5.5265 C   0  0  0  0  0  0  0  0  0  0  0  0
   -4.1795   26.5873    4.9106 C   0  0  0  0  0  0  0  0  0  0  0  0
   -4.4348   27.9518    5.1136 N   0  0  0  0  0  0  0  0  0  0  0  0
   -3.8429   28.8185    4.3617 C   0  0  0  0  0  0  0  0  0  0  0  0
   -2.8720   28.5518    3.2472 C   0  0  0  0  0  0  0  0  0  0  0  0
   -4.0846   30.1232    4.5935 O   0  0  0  0  0  0  0  0  0  0  0  0
   -5.6850   23.5335    3.1455 C   0  0  0  0  0  0  0  0  0  0  0  0
  1  2  1  0
  2  3  1  0
  3  4  1  0
  4  5  1  0
  5  6  1  0
  6  7  2  0
  7  8  1  0
  8  9  2  0
  9 10  1  0
 10 11  2  0
 11 12  1  0
 12 13  2  3
 13 14  1  0
 13 15  1  0
  7 16  1  0
 16  3  1  0
 11  6  1  0
M  END
>  <Energy>  (582) 
7.8816894945109262

>  <Energy_Delta>  (582) 
1.9615115591129317

>  <std_smi>  (582) 
CCN1CCc2c(cccc2NC(C)=O)C1

>  <enum_smi>  (582) 
CCN1CCc2c(cccc2N=C(C)O)C1

>  <enum_code>  (582) 
T

>  <parent_uuid>  (582) 
159e9a67-9ddd-4f06-8bc8-f63c27ed1469

>  <o3da_score>  (582) 
74.771286178496823

>  <o3da_score_rel>  (582) 
0.29767535423632407

>  <o3da_align>  (582) 
0.39368145179047564

>  <RMSD>  (582) 
0.017498781640546315

>  <CONVERGED>  (582) 
0

>  <ENERGY>  (582) 
16.916646729929074

$$$$
373c04e7-4287-447d-9834-40d12fbc9822
     RDKit          3D

 16 17  0  0  0  0  0  0  0  0999 V2000
   -2.0651   30.3975    3.7752 C   0  0  0  0  0  0  0  0  0  0  0  0
   -3.0761   29.2564    3.7285 C   0  0  0  0  0  0  0  0  0  0  0  0
   -3.7166   29.0026    5.0284 N   0  0  0  0  0  0  0  0  0  0  0  0
   -2.7915   28.5530    6.0806 C   0  0  0  0  0  0  0  0  0  0  0  0
   -2.1272   27.1969    5.8060 C   0  0  0  0  0  0  0  0  0  0  0  0
   -3.0914   26.1655    5.2651 C   0  0  0  0  0  0  0  0  0  0  0  0
   -4.3536   26.5746    4.7840 C   0  0  0  0  0  0  0  0  0  0  0  0
   -5.2263   25.6223    4.2370 C   0  0  0  0  0  0  0  0  0  0  0  0
   -4.8399   24.2883    4.1305 C   0  0  0  0  0  0  0  0  0  0  0  0
   -3.5845   23.8915    4.5866 C   0  0  0  0  0  0  0  0  0  0  0  0
   -2.7103   24.8147    5.1711 C   0  0  0  0  0  0  0  0  0  0  0  0
   -1.4471   24.3841    5.6037 N   0  0  0  0  0  0  0  0  0  0  0  0
   -1.3305   23.8685    6.7815 C   0  0  0  0  0  0  0  0  0  0  0  0
   -2.4147   23.6565    7.7992 C   0  0  0  0  0  0  0  0  0  0  0  0
   -0.1123   23.4390    7.1635 O   0  0  0  0  0  0  0  0  0  0  0  0
   -4.8055   28.0157    4.9029 C   0  0  0  0  0  0  0  0  0  0  0  0
  1  2  1  0
  2  3  1  0
  3  4  1  0
  4  5  1  0
  5  6  1  0
  6  7  2  0
  7  8  1  0
  8  9  2  0
  9 10  1  0
 10 11  2  0
 11 12  1  0
 12 13  2  3
 13 14  1  0
 13 15  1  0
  7 16  1  0
 16  3  1  0
 11  6  1  0
M  END
>  <Energy>  (583) 
7.881689495994662

>  <Energy_Delta>  (583) 
1.9615115605966675

>  <std_smi>  (583) 
CCN1CCc2c(cccc2NC(C)=O)C1

>  <enum_smi>  (583) 
CCN1CCc2c(cccc2N=C(C)O)C1

>  <enum_code>  (583) 
T

>  <parent_uuid>  (583) 
159e9a67-9ddd-4f06-8bc8-f63c27ed1469

>  <o3da_score>  (583) 
74.668515520425004

>  <o3da_score_rel>  (583) 
0.29726620931438708

>  <o3da_align>  (583) 
0.19939771123310218

>  <RMSD>  (583) 
0.017495357232060825

>  <CONVERGED>  (583) 
0

>  <ENERGY>  (583) 
16.916646729931671

$$$$
373c04e7-4287-447d-9834-40d12fbc9822
     RDKit          3D

 16 17  0  0  0  0  0  0  0  0999 V2000
   -7.0655   27.2413    4.9512 C   0  0  0  0  0  0  0  0  0  0  0  0
   -5.9764   28.1991    4.4786 C   0  0  0  0  0  0  0  0  0  0  0  0
   -4.6804   27.9289    5.1190 N   0  0  0  0  0  0  0  0  0  0  0  0
   -3.7520   29.0633    4.9764 C   0  0  0  0  0  0  0  0  0  0  0  0
   -3.3252   29.3581    3.5315 C   0  0  0  0  0  0  0  0  0  0  0  0
   -2.9959   28.1101    2.7449 C   0  0  0  0  0  0  0  0  0  0  0  0
   -3.3840   26.8487    3.2441 C   0  0  0  0  0  0  0  0  0  0  0  0
   -3.1239   25.6966    2.4873 C   0  0  0  0  0  0  0  0  0  0  0  0
   -2.5231   25.7943    1.2344 C   0  0  0  0  0  0  0  0  0  0  0  0
   -2.1605   27.0436    0.7350 C   0  0  0  0  0  0  0  0  0  0  0  0
   -2.3745   28.2046    1.4864 C   0  0  0  0  0  0  0  0  0  0  0  0
   -2.0137   29.4478    0.9456 N   0  0  0  0  0  0  0  0  0  0  0  0
   -0.7965   29.8580    1.0760 C   0  0  0  0  0  0  0  0  0  0  0  0
    0.3391   29.1516    1.7596 C   0  0  0  0  0  0  0  0  0  0  0  0
   -0.4686   31.0429    0.5255 O   0  0  0  0  0  0  0  0  0  0  0  0
   -4.0217   26.7122    4.6116 C   0  0  0  0  0  0  0  0  0  0  0  0
  1  2  1  0
  2  3  1  0
  3  4  1  0
  4  5  1  0
  5  6  1  0
  6  7  2  0
  7  8  1  0
  8  9  2  0
  9 10  1  0
 10 11  2  0
 11 12  1  0
 12 13  2  3
 13 14  1  0
 13 15  1  0
  7 16  1  0
 16  3  1  0
 11  6  1  0
M  END
>  <Energy>  (584) 
8.0594571683314911

>  <Energy_Delta>  (584) 
2.1392792329334966

>  <std_smi>  (584) 
CCN1CCc2c(cccc2NC(C)=O)C1

>  <enum_smi>  (584) 
CCN1CCc2c(cccc2N=C(C)O)C1

>  <enum_code>  (584) 
T

>  <parent_uuid>  (584) 
159e9a67-9ddd-4f06-8bc8-f63c27ed1469

>  <o3da_score>  (584) 
72.314782200494903

>  <o3da_score_rel>  (584) 
0.28789565497999436

>  <o3da_align>  (584) 
0.47838359257920376

>  <RMSD>  (584) 
0.017674459957848491

>  <CONVERGED>  (584) 
0

>  <ENERGY>  (584) 
17.086152564835949

$$$$
373c04e7-4287-447d-9834-40d12fbc9822
     RDKit          3D

 16 17  0  0  0  0  0  0  0  0999 V2000
   -5.0492   30.9601    4.0978 C   0  0  0  0  0  0  0  0  0  0  0  0
   -4.5354   30.3307    5.3883 C   0  0  0  0  0  0  0  0  0  0  0  0
   -3.8923   29.0251    5.1777 N   0  0  0  0  0  0  0  0  0  0  0  0
   -3.2529   28.5668    6.4224 C   0  0  0  0  0  0  0  0  0  0  0  0
   -2.4010   27.3180    6.1715 C   0  0  0  0  0  0  0  0  0  0  0  0
   -3.1495   26.2455    5.4207 C   0  0  0  0  0  0  0  0  0  0  0  0
   -4.3074   26.5930    4.6964 C   0  0  0  0  0  0  0  0  0  0  0  0
   -5.0021   25.5989    3.9900 C   0  0  0  0  0  0  0  0  0  0  0  0
   -4.5452   24.2828    3.9858 C   0  0  0  0  0  0  0  0  0  0  0  0
   -3.3876   23.9489    4.6863 C   0  0  0  0  0  0  0  0  0  0  0  0
   -2.6710   24.9228    5.3903 C   0  0  0  0  0  0  0  0  0  0  0  0
   -1.5184   24.5464    6.1010 N   0  0  0  0  0  0  0  0  0  0  0  0
   -0.3907   24.5456    5.4727 C   0  0  0  0  0  0  0  0  0  0  0  0
    0.8893   24.1685    6.1463 C   0  0  0  0  0  0  0  0  0  0  0  0
   -0.2579   24.8803    4.1743 O   0  0  0  0  0  0  0  0  0  0  0  0
   -4.8572   28.0055    4.7217 C   0  0  0  0  0  0  0  0  0  0  0  0
  1  2  1  0
  2  3  1  0
  3  4  1  0
  4  5  1  0
  5  6  1  0
  6  7  2  0
  7  8  1  0
  8  9  2  0
  9 10  1  0
 10 11  2  0
 11 12  1  0
 12 13  2  3
 13 14  1  0
 13 15  1  0
  7 16  1  0
 16  3  1  0
 11  6  1  0
M  END
>  <Energy>  (585) 
8.4275169359366728

>  <Energy_Delta>  (585) 
2.5073390005386784

>  <std_smi>  (585) 
CCN1CCc2c(cccc2NC(C)=O)C1

>  <enum_smi>  (585) 
CCN1CCc2c(cccc2N=C(C)O)C1

>  <enum_code>  (585) 
T

>  <parent_uuid>  (585) 
159e9a67-9ddd-4f06-8bc8-f63c27ed1469

>  <o3da_score>  (585) 
66.394517269233447

>  <o3da_score_rel>  (585) 
0.26432622009854706

>  <o3da_align>  (585) 
0.37892316984744195

>  <RMSD>  (585) 
0.061200713798618661

>  <CONVERGED>  (585) 
0

>  <ENERGY>  (585) 
14.593389311940479

$$$$
373c04e7-4287-447d-9834-40d12fbc9822
     RDKit          3D

 16 17  0  0  0  0  0  0  0  0999 V2000
   -6.1707   28.5105    6.7226 C   0  0  0  0  0  0  0  0  0  0  0  0
   -5.1800   27.4998    6.1545 C   0  0  0  0  0  0  0  0  0  0  0  0
   -4.6076   27.9146    4.8650 N   0  0  0  0  0  0  0  0  0  0  0  0
   -3.8158   26.8176    4.2839 C   0  0  0  0  0  0  0  0  0  0  0  0
   -3.3888   27.1513    2.8505 C   0  0  0  0  0  0  0  0  0  0  0  0
   -2.7500   28.5126    2.7368 C   0  0  0  0  0  0  0  0  0  0  0  0
   -2.9626   29.4600    3.7583 C   0  0  0  0  0  0  0  0  0  0  0  0
   -2.3761   30.7307    3.6519 C   0  0  0  0  0  0  0  0  0  0  0  0
   -1.6057   31.0643    2.5402 C   0  0  0  0  0  0  0  0  0  0  0  0
   -1.4165   30.1308    1.5228 C   0  0  0  0  0  0  0  0  0  0  0  0
   -1.9982   28.8606    1.5996 C   0  0  0  0  0  0  0  0  0  0  0  0
   -1.7705   27.9381    0.5641 N   0  0  0  0  0  0  0  0  0  0  0  0
   -2.5684   27.9548   -0.4505 C   0  0  0  0  0  0  0  0  0  0  0  0
   -2.4110   27.0072   -1.5958 C   0  0  0  0  0  0  0  0  0  0  0  0
   -3.6028   28.8093   -0.5743 O   0  0  0  0  0  0  0  0  0  0  0  0
   -3.7543   29.1111    5.0030 C   0  0  0  0  0  0  0  0  0  0  0  0
  1  2  1  0
  2  3  1  0
  3  4  1  0
  4  5  1  0
  5  6  1  0
  6  7  2  0
  7  8  1  0
  8  9  2  0
  9 10  1  0
 10 11  2  0
 11 12  1  0
 12 13  2  3
 13 14  1  0
 13 15  1  0
  7 16  1  0
 16  3  1  0
 11  6  1  0
M  END
>  <Energy>  (586) 
8.4275169359818172

>  <Energy_Delta>  (586) 
2.5073390005838228

>  <std_smi>  (586) 
CCN1CCc2c(cccc2NC(C)=O)C1

>  <enum_smi>  (586) 
CCN1CCc2c(cccc2N=C(C)O)C1

>  <enum_code>  (586) 
T

>  <parent_uuid>  (586) 
159e9a67-9ddd-4f06-8bc8-f63c27ed1469

>  <o3da_score>  (586) 
67.287216733944987

>  <o3da_score_rel>  (586) 
0.26788018637311689

>  <o3da_align>  (586) 
0.3399180823870025

>  <RMSD>  (586) 
0.061191320665946625

>  <CONVERGED>  (586) 
0

>  <ENERGY>  (586) 
14.593389311948123

$$$$
373c04e7-4287-447d-9834-40d12fbc9822
     RDKit          3D

 16 17  0  0  0  0  0  0  0  0999 V2000
   -6.1707   28.5105    6.7226 C   0  0  0  0  0  0  0  0  0  0  0  0
   -5.1800   27.4998    6.1544 C   0  0  0  0  0  0  0  0  0  0  0  0
   -4.6076   27.9146    4.8650 N   0  0  0  0  0  0  0  0  0  0  0  0
   -3.8158   26.8175    4.2839 C   0  0  0  0  0  0  0  0  0  0  0  0
   -3.3888   27.1513    2.8505 C   0  0  0  0  0  0  0  0  0  0  0  0
   -2.7501   28.5126    2.7368 C   0  0  0  0  0  0  0  0  0  0  0  0
   -2.9626   29.4600    3.7583 C   0  0  0  0  0  0  0  0  0  0  0  0
   -2.3761   30.7307    3.6520 C   0  0  0  0  0  0  0  0  0  0  0  0
   -1.6057   31.0642    2.5402 C   0  0  0  0  0  0  0  0  0  0  0  0
   -1.4165   30.1308    1.5228 C   0  0  0  0  0  0  0  0  0  0  0  0
   -1.9983   28.8606    1.5996 C   0  0  0  0  0  0  0  0  0  0  0  0
   -1.7705   27.9381    0.5641 N   0  0  0  0  0  0  0  0  0  0  0  0
   -2.5684   27.9548   -0.4505 C   0  0  0  0  0  0  0  0  0  0  0  0
   -2.4110   27.0072   -1.5958 C   0  0  0  0  0  0  0  0  0  0  0  0
   -3.6029   28.8093   -0.5743 O   0  0  0  0  0  0  0  0  0  0  0  0
   -3.7544   29.1111    5.0030 C   0  0  0  0  0  0  0  0  0  0  0  0
  1  2  1  0
  2  3  1  0
  3  4  1  0
  4  5  1  0
  5  6  1  0
  6  7  2  0
  7  8  1  0
  8  9  2  0
  9 10  1  0
 10 11  2  0
 11 12  1  0
 12 13  2  3
 13 14  1  0
 13 15  1  0
  7 16  1  0
 16  3  1  0
 11  6  1  0
M  END
>  <Energy>  (587) 
8.4275169360158984

>  <Energy_Delta>  (587) 
2.5073390006179039

>  <std_smi>  (587) 
CCN1CCc2c(cccc2NC(C)=O)C1

>  <enum_smi>  (587) 
CCN1CCc2c(cccc2N=C(C)O)C1

>  <enum_code>  (587) 
T

>  <parent_uuid>  (587) 
159e9a67-9ddd-4f06-8bc8-f63c27ed1469

>  <o3da_score>  (587) 
67.28691003761864

>  <o3da_score_rel>  (587) 
0.26787896537047995

>  <o3da_align>  (587) 
0.33993419406344705

>  <RMSD>  (587) 
0.061219951651269387

>  <CONVERGED>  (587) 
0

>  <ENERGY>  (587) 
14.593389311992217

$$$$
373c04e7-4287-447d-9834-40d12fbc9822
     RDKit          3D

 16 17  0  0  0  0  0  0  0  0999 V2000
   -3.5932   31.4818    5.4506 C   0  0  0  0  0  0  0  0  0  0  0  0
   -4.5691   30.3173    5.3203 C   0  0  0  0  0  0  0  0  0  0  0  0
   -3.8909   29.0215    5.1718 N   0  0  0  0  0  0  0  0  0  0  0  0
   -3.2548   28.5756    6.4217 C   0  0  0  0  0  0  0  0  0  0  0  0
   -2.4104   27.3168    6.1840 C   0  0  0  0  0  0  0  0  0  0  0  0
   -3.1514   26.2451    5.4240 C   0  0  0  0  0  0  0  0  0  0  0  0
   -4.3073   26.5913    4.6960 C   0  0  0  0  0  0  0  0  0  0  0  0
   -4.9938   25.5993    3.9793 C   0  0  0  0  0  0  0  0  0  0  0  0
   -4.5301   24.2856    3.9684 C   0  0  0  0  0  0  0  0  0  0  0  0
   -3.3747   23.9525    4.6730 C   0  0  0  0  0  0  0  0  0  0  0  0
   -2.6665   24.9250    5.3876 C   0  0  0  0  0  0  0  0  0  0  0  0
   -1.5162   24.5495    6.1024 N   0  0  0  0  0  0  0  0  0  0  0  0
   -0.3854   24.5552    5.4798 C   0  0  0  0  0  0  0  0  0  0  0  0
    0.8926   24.1798    6.1583 C   0  0  0  0  0  0  0  0  0  0  0  0
   -0.2472   24.8957    4.1835 O   0  0  0  0  0  0  0  0  0  0  0  0
   -4.8638   27.9988    4.7363 C   0  0  0  0  0  0  0  0  0  0  0  0
  1  2  1  0
  2  3  1  0
  3  4  1  0
  4  5  1  0
  5  6  1  0
  6  7  2  0
  7  8  1  0
  8  9  2  0
  9 10  1  0
 10 11  2  0
 11 12  1  0
 12 13  2  3
 13 14  1  0
 13 15  1  0
  7 16  1  0
 16  3  1  0
 11  6  1  0
M  END
>  <Energy>  (588) 
8.6044404406950932

>  <Energy_Delta>  (588) 
2.6842625052970988

>  <std_smi>  (588) 
CCN1CCc2c(cccc2NC(C)=O)C1

>  <enum_smi>  (588) 
CCN1CCc2c(cccc2N=C(C)O)C1

>  <enum_code>  (588) 
T

>  <parent_uuid>  (588) 
159e9a67-9ddd-4f06-8bc8-f63c27ed1469

>  <o3da_score>  (588) 
66.342709099018734

>  <o3da_score_rel>  (588) 
0.26411996424540868

>  <o3da_align>  (588) 
0.38121918143421873

>  <RMSD>  (588) 
0.062852762450656477

>  <CONVERGED>  (588) 
0

>  <ENERGY>  (588) 
14.785241956890959

$$$$
373c04e7-4287-447d-9834-40d12fbc9822
     RDKit          3D

 16 17  0  0  0  0  0  0  0  0999 V2000
   -0.7546   30.7512    3.3289 C   0  0  0  0  0  0  0  0  0  0  0  0
   -2.2432   30.6758    3.6508 C   0  0  0  0  0  0  0  0  0  0  0  0
   -2.6813   29.3163    3.9982 N   0  0  0  0  0  0  0  0  0  0  0  0
   -2.7110   28.4217    2.8301 C   0  0  0  0  0  0  0  0  0  0  0  0
   -2.9973   26.9764    3.2583 C   0  0  0  0  0  0  0  0  0  0  0  0
   -4.1816   26.8601    4.1853 C   0  0  0  0  0  0  0  0  0  0  0  0
   -4.6449   28.0083    4.8581 C   0  0  0  0  0  0  0  0  0  0  0  0
   -5.7399   27.9024    5.7292 C   0  0  0  0  0  0  0  0  0  0  0  0
   -6.3555   26.6715    5.9453 C   0  0  0  0  0  0  0  0  0  0  0  0
   -5.8804   25.5349    5.2933 C   0  0  0  0  0  0  0  0  0  0  0  0
   -4.7841   25.6120    4.4274 C   0  0  0  0  0  0  0  0  0  0  0  0
   -4.3439   24.4492    3.7722 N   0  0  0  0  0  0  0  0  0  0  0  0
   -3.4840   23.6999    4.3768 C   0  0  0  0  0  0  0  0  0  0  0  0
   -2.9513   22.4486    3.7564 C   0  0  0  0  0  0  0  0  0  0  0  0
   -2.9894   23.9674    5.6012 O   0  0  0  0  0  0  0  0  0  0  0  0
   -4.0300   29.3674    4.5989 C   0  0  0  0  0  0  0  0  0  0  0  0
  1  2  1  0
  2  3  1  0
  3  4  1  0
  4  5  1  0
  5  6  1  0
  6  7  2  0
  7  8  1  0
  8  9  2  0
  9 10  1  0
 10 11  2  0
 11 12  1  0
 12 13  2  3
 13 14  1  0
 13 15  1  0
  7 16  1  0
 16  3  1  0
 11  6  1  0
M  END
>  <Energy>  (589) 
8.6044404407063091

>  <Energy_Delta>  (589) 
2.6842625053083147

>  <std_smi>  (589) 
CCN1CCc2c(cccc2NC(C)=O)C1

>  <enum_smi>  (589) 
CCN1CCc2c(cccc2N=C(C)O)C1

>  <enum_code>  (589) 
T

>  <parent_uuid>  (589) 
159e9a67-9ddd-4f06-8bc8-f63c27ed1469

>  <o3da_score>  (589) 
74.536719625109384

>  <o3da_score_rel>  (589) 
0.29674151070573518

>  <o3da_align>  (589) 
0.60545891867130852

>  <RMSD>  (589) 
0.06285254809897424

>  <CONVERGED>  (589) 
0

>  <ENERGY>  (589) 
14.785241956850559

$$$$
373c04e7-4287-447d-9834-40d12fbc9822
     RDKit          3D

 16 17  0  0  0  0  0  0  0  0999 V2000
   -6.3476   29.5628    3.8314 C   0  0  0  0  0  0  0  0  0  0  0  0
   -6.0222   28.3430    4.6868 C   0  0  0  0  0  0  0  0  0  0  0  0
   -4.6172   27.9264    4.5713 N   0  0  0  0  0  0  0  0  0  0  0  0
   -3.6991   28.8596    5.2436 C   0  0  0  0  0  0  0  0  0  0  0  0
   -2.2385   28.4922    4.9509 C   0  0  0  0  0  0  0  0  0  0  0  0
   -1.9428   27.0299    5.1733 C   0  0  0  0  0  0  0  0  0  0  0  0
   -3.0106   26.1120    5.2289 C   0  0  0  0  0  0  0  0  0  0  0  0
   -2.7391   24.7494    5.4255 C   0  0  0  0  0  0  0  0  0  0  0  0
   -1.4261   24.2998    5.5460 C   0  0  0  0  0  0  0  0  0  0  0  0
   -0.3724   25.2088    5.4695 C   0  0  0  0  0  0  0  0  0  0  0  0
   -0.6158   26.5713    5.2644 C   0  0  0  0  0  0  0  0  0  0  0  0
    0.4699   27.4622    5.2116 N   0  0  0  0  0  0  0  0  0  0  0  0
    1.0403   27.6575    4.0702 C   0  0  0  0  0  0  0  0  0  0  0  0
    2.1961   28.5925    3.9137 C   0  0  0  0  0  0  0  0  0  0  0  0
    0.6568   27.0521    2.9292 O   0  0  0  0  0  0  0  0  0  0  0  0
   -4.4485   26.5806    5.1568 C   0  0  0  0  0  0  0  0  0  0  0  0
  1  2  1  0
  2  3  1  0
  3  4  1  0
  4  5  1  0
  5  6  1  0
  6  7  2  0
  7  8  1  0
  8  9  2  0
  9 10  1  0
 10 11  2  0
 11 12  1  0
 12 13  2  3
 13 14  1  0
 13 15  1  0
  7 16  1  0
 16  3  1  0
 11  6  1  0
M  END
>  <Energy>  (590) 
8.6044404411165019

>  <Energy_Delta>  (590) 
2.6842625057185074

>  <std_smi>  (590) 
CCN1CCc2c(cccc2NC(C)=O)C1

>  <enum_smi>  (590) 
CCN1CCc2c(cccc2N=C(C)O)C1

>  <enum_code>  (590) 
T

>  <parent_uuid>  (590) 
159e9a67-9ddd-4f06-8bc8-f63c27ed1469

>  <o3da_score>  (590) 
64.225978223739048

>  <o3da_score_rel>  (590) 
0.2556929510786477

>  <o3da_align>  (590) 
0.30236007262749193

>  <RMSD>  (590) 
0.062851538347581309

>  <CONVERGED>  (590) 
0

>  <ENERGY>  (590) 
14.785241956979863

$$$$
373c04e7-4287-447d-9834-40d12fbc9822
     RDKit          3D

 16 17  0  0  0  0  0  0  0  0999 V2000
   -6.7153   28.8278    5.9834 C   0  0  0  0  0  0  0  0  0  0  0  0
   -5.6797   27.7656    5.6297 C   0  0  0  0  0  0  0  0  0  0  0  0
   -4.8676   28.1187    4.4560 N   0  0  0  0  0  0  0  0  0  0  0  0
   -4.0312   26.9765    4.0533 C   0  0  0  0  0  0  0  0  0  0  0  0
   -3.3349   27.2490    2.7153 C   0  0  0  0  0  0  0  0  0  0  0  0
   -2.6299   28.5819    2.6871 C   0  0  0  0  0  0  0  0  0  0  0  0
   -2.9958   29.5724    3.6212 C   0  0  0  0  0  0  0  0  0  0  0  0
   -2.3726   30.8292    3.5735 C   0  0  0  0  0  0  0  0  0  0  0  0
   -1.4244   31.1122    2.5934 C   0  0  0  0  0  0  0  0  0  0  0  0
   -1.0821   30.1370    1.6588 C   0  0  0  0  0  0  0  0  0  0  0  0
   -1.6670   28.8661    1.7014 C   0  0  0  0  0  0  0  0  0  0  0  0
   -1.3268   27.9202    0.7191 N   0  0  0  0  0  0  0  0  0  0  0  0
   -0.2625   27.2117    0.8939 C   0  0  0  0  0  0  0  0  0  0  0  0
    0.1757   26.1853   -0.1007 C   0  0  0  0  0  0  0  0  0  0  0  0
    0.5402   27.3202    1.9713 O   0  0  0  0  0  0  0  0  0  0  0  0
   -4.0060   29.2880    4.7151 C   0  0  0  0  0  0  0  0  0  0  0  0
  1  2  1  0
  2  3  1  0
  3  4  1  0
  4  5  1  0
  5  6  1  0
  6  7  2  0
  7  8  1  0
  8  9  2  0
  9 10  1  0
 10 11  2  0
 11 12  1  0
 12 13  2  3
 13 14  1  0
 13 15  1  0
  7 16  1  0
 16  3  1  0
 11  6  1  0
M  END
>  <Energy>  (591) 
9.5924116903197252

>  <Energy_Delta>  (591) 
3.6722337549217308

>  <std_smi>  (591) 
CCN1CCc2c(cccc2NC(C)=O)C1

>  <enum_smi>  (591) 
CCN1CCc2c(cccc2N=C(C)O)C1

>  <enum_code>  (591) 
T

>  <parent_uuid>  (591) 
159e9a67-9ddd-4f06-8bc8-f63c27ed1469

>  <o3da_score>  (591) 
68.676046392108574

>  <o3da_score_rel>  (591) 
0.27340931903349169

>  <o3da_align>  (591) 
0.55009402269462415

>  <RMSD>  (591) 
0.035908046240679718

>  <CONVERGED>  (591) 
0

>  <ENERGY>  (591) 
15.030423743434099

$$$$
373c04e7-4287-447d-9834-40d12fbc9822
     RDKit          3D

 16 17  0  0  0  0  0  0  0  0999 V2000
   -6.9741   27.5737    3.8458 C   0  0  0  0  0  0  0  0  0  0  0  0
   -5.9988   28.3867    4.6906 C   0  0  0  0  0  0  0  0  0  0  0  0
   -4.6121   27.9078    4.5931 N   0  0  0  0  0  0  0  0  0  0  0  0
   -3.7008   28.8459    5.2686 C   0  0  0  0  0  0  0  0  0  0  0  0
   -2.2368   28.4788    5.0025 C   0  0  0  0  0  0  0  0  0  0  0  0
   -1.9448   27.0229    5.2664 C   0  0  0  0  0  0  0  0  0  0  0  0
   -3.0126   26.1031    5.2994 C   0  0  0  0  0  0  0  0  0  0  0  0
   -2.7434   24.7407    5.5031 C   0  0  0  0  0  0  0  0  0  0  0  0
   -1.4322   24.2910    5.6388 C   0  0  0  0  0  0  0  0  0  0  0  0
   -0.3786   25.2014    5.5835 C   0  0  0  0  0  0  0  0  0  0  0  0
   -0.6208   26.5690    5.4103 C   0  0  0  0  0  0  0  0  0  0  0  0
    0.4679   27.4532    5.3201 N   0  0  0  0  0  0  0  0  0  0  0  0
    0.9917   27.8932    6.4143 C   0  0  0  0  0  0  0  0  0  0  0  0
    2.1534   28.8340    6.4119 C   0  0  0  0  0  0  0  0  0  0  0  0
    0.5487   27.5599    7.6429 O   0  0  0  0  0  0  0  0  0  0  0  0
   -4.4519   26.5635    5.1795 C   0  0  0  0  0  0  0  0  0  0  0  0
  1  2  1  0
  2  3  1  0
  3  4  1  0
  4  5  1  0
  5  6  1  0
  6  7  2  0
  7  8  1  0
  8  9  2  0
  9 10  1  0
 10 11  2  0
 11 12  1  0
 12 13  2  3
 13 14  1  0
 13 15  1  0
  7 16  1  0
 16  3  1  0
 11  6  1  0
M  END
>  <Energy>  (592) 
9.5924116904319678

>  <Energy_Delta>  (592) 
3.6722337550339734

>  <std_smi>  (592) 
CCN1CCc2c(cccc2NC(C)=O)C1

>  <enum_smi>  (592) 
CCN1CCc2c(cccc2N=C(C)O)C1

>  <enum_code>  (592) 
T

>  <parent_uuid>  (592) 
159e9a67-9ddd-4f06-8bc8-f63c27ed1469

>  <o3da_score>  (592) 
64.258393866885456

>  <o3da_score_rel>  (592) 
0.25582200246387293

>  <o3da_align>  (592) 
0.30257520850226621

>  <RMSD>  (592) 
0.035927942660530877

>  <CONVERGED>  (592) 
0

>  <ENERGY>  (592) 
15.030423743430957

$$$$
373c04e7-4287-447d-9834-40d12fbc9822
     RDKit          3D

 16 17  0  0  0  0  0  0  0  0999 V2000
   -1.9384   31.1336    2.2861 C   0  0  0  0  0  0  0  0  0  0  0  0
   -2.2659   30.6253    3.6860 C   0  0  0  0  0  0  0  0  0  0  0  0
   -3.1351   29.4402    3.6719 N   0  0  0  0  0  0  0  0  0  0  0  0
   -2.4328   28.2344    3.2061 C   0  0  0  0  0  0  0  0  0  0  0  0
   -3.4084   27.0619    3.0381 C   0  0  0  0  0  0  0  0  0  0  0  0
   -4.3020   26.8610    4.2367 C   0  0  0  0  0  0  0  0  0  0  0  0
   -4.4612   27.9144    5.1599 C   0  0  0  0  0  0  0  0  0  0  0  0
   -5.3250   27.7497    6.2533 C   0  0  0  0  0  0  0  0  0  0  0  0
   -6.0476   26.5696    6.4122 C   0  0  0  0  0  0  0  0  0  0  0  0
   -5.9032   25.5389    5.4854 C   0  0  0  0  0  0  0  0  0  0  0  0
   -5.0264   25.6663    4.4018 C   0  0  0  0  0  0  0  0  0  0  0  0
   -4.9355   24.6222    3.4654 N   0  0  0  0  0  0  0  0  0  0  0  0
   -4.1442   23.6358    3.7231 C   0  0  0  0  0  0  0  0  0  0  0  0
   -3.9879   22.4823    2.7852 C   0  0  0  0  0  0  0  0  0  0  0  0
   -3.3911   23.5521    4.8377 O   0  0  0  0  0  0  0  0  0  0  0  0
   -3.6653   29.1955    5.0282 C   0  0  0  0  0  0  0  0  0  0  0  0
  1  2  1  0
  2  3  1  0
  3  4  1  0
  4  5  1  0
  5  6  1  0
  6  7  2  0
  7  8  1  0
  8  9  2  0
  9 10  1  0
 10 11  2  0
 11 12  1  0
 12 13  2  3
 13 14  1  0
 13 15  1  0
  7 16  1  0
 16  3  1  0
 11  6  1  0
M  END
>  <Energy>  (593) 
9.7766339084671472

>  <Energy_Delta>  (593) 
3.8564559730691528

>  <std_smi>  (593) 
CCN1CCc2c(cccc2NC(C)=O)C1

>  <enum_smi>  (593) 
CCN1CCc2c(cccc2N=C(C)O)C1

>  <enum_code>  (593) 
T

>  <parent_uuid>  (593) 
159e9a67-9ddd-4f06-8bc8-f63c27ed1469

>  <o3da_score>  (593) 
66.735316555426891

>  <o3da_score_rel>  (593) 
0.26568299157361491

>  <o3da_align>  (593) 
0.4496238410287236

>  <RMSD>  (593) 
0.035467021001572119

>  <CONVERGED>  (593) 
0

>  <ENERGY>  (593) 
15.214438677767312

$$$$
373c04e7-4287-447d-9834-40d12fbc9822
     RDKit          3D

 16 17  0  0  0  0  0  0  0  0999 V2000
   -6.4044   26.6125    5.9762 C   0  0  0  0  0  0  0  0  0  0  0  0
   -5.2399   27.5861    6.1230 C   0  0  0  0  0  0  0  0  0  0  0  0
   -4.6209   27.9308    4.8353 N   0  0  0  0  0  0  0  0  0  0  0  0
   -3.8480   26.8153    4.2675 C   0  0  0  0  0  0  0  0  0  0  0  0
   -3.3639   27.1489    2.8500 C   0  0  0  0  0  0  0  0  0  0  0  0
   -2.7028   28.5015    2.7549 C   0  0  0  0  0  0  0  0  0  0  0  0
   -2.9299   29.4508    3.7720 C   0  0  0  0  0  0  0  0  0  0  0  0
   -2.3534   30.7258    3.6677 C   0  0  0  0  0  0  0  0  0  0  0  0
   -1.5894   31.0675    2.5544 C   0  0  0  0  0  0  0  0  0  0  0  0
   -1.3851   30.1328    1.5411 C   0  0  0  0  0  0  0  0  0  0  0  0
   -1.9247   28.8446    1.6341 C   0  0  0  0  0  0  0  0  0  0  0  0
   -1.7311   27.9408    0.5755 N   0  0  0  0  0  0  0  0  0  0  0  0
   -0.6375   27.2563    0.5471 C   0  0  0  0  0  0  0  0  0  0  0  0
   -0.3476   26.2748   -0.5426 C   0  0  0  0  0  0  0  0  0  0  0  0
    0.3296   27.3518    1.4811 O   0  0  0  0  0  0  0  0  0  0  0  0
   -3.7305   29.0962    5.0070 C   0  0  0  0  0  0  0  0  0  0  0  0
  1  2  1  0
  2  3  1  0
  3  4  1  0
  4  5  1  0
  5  6  1  0
  6  7  2  0
  7  8  1  0
  8  9  2  0
  9 10  1  0
 10 11  2  0
 11 12  1  0
 12 13  2  3
 13 14  1  0
 13 15  1  0
  7 16  1  0
 16  3  1  0
 11  6  1  0
M  END
>  <Energy>  (594) 
9.7766339094862218

>  <Energy_Delta>  (594) 
3.8564559740882274

>  <std_smi>  (594) 
CCN1CCc2c(cccc2NC(C)=O)C1

>  <enum_smi>  (594) 
CCN1CCc2c(cccc2N=C(C)O)C1

>  <enum_code>  (594) 
T

>  <parent_uuid>  (594) 
159e9a67-9ddd-4f06-8bc8-f63c27ed1469

>  <o3da_score>  (594) 
67.398715913044683

>  <o3da_score_rel>  (594) 
0.26832408080548398

>  <o3da_align>  (594) 
0.33447792504126544

>  <RMSD>  (594) 
0.035442102810658856

>  <CONVERGED>  (594) 
0

>  <ENERGY>  (594) 
15.214438677805649

$$$$
373c04e7-4287-447d-9834-40d12fbc9822
     RDKit          3D

 16 17  0  0  0  0  0  0  0  0999 V2000
   -4.4974   27.0775    7.2604 C   0  0  0  0  0  0  0  0  0  0  0  0
   -5.3291   27.5712    6.0798 C   0  0  0  0  0  0  0  0  0  0  0  0
   -4.6035   27.9222    4.8558 N   0  0  0  0  0  0  0  0  0  0  0  0
   -3.8330   26.8086    4.2935 C   0  0  0  0  0  0  0  0  0  0  0  0
   -3.3834   27.1396    2.8646 C   0  0  0  0  0  0  0  0  0  0  0  0
   -2.7488   28.5052    2.7485 C   0  0  0  0  0  0  0  0  0  0  0  0
   -2.9619   29.4565    3.7684 C   0  0  0  0  0  0  0  0  0  0  0  0
   -2.3827   30.7297    3.6564 C   0  0  0  0  0  0  0  0  0  0  0  0
   -1.6183   31.0629    2.5405 C   0  0  0  0  0  0  0  0  0  0  0  0
   -1.4273   30.1266    1.5257 C   0  0  0  0  0  0  0  0  0  0  0  0
   -2.0021   28.8535    1.6082 C   0  0  0  0  0  0  0  0  0  0  0  0
   -1.7725   27.9287    0.5750 N   0  0  0  0  0  0  0  0  0  0  0  0
   -2.5694   27.9420   -0.4404 C   0  0  0  0  0  0  0  0  0  0  0  0
   -2.4098   26.9916   -1.5831 C   0  0  0  0  0  0  0  0  0  0  0  0
   -3.6048   28.7949   -0.5674 O   0  0  0  0  0  0  0  0  0  0  0  0
   -3.7414   29.1016    5.0189 C   0  0  0  0  0  0  0  0  0  0  0  0
  1  2  1  0
  2  3  1  0
  3  4  1  0
  4  5  1  0
  5  6  1  0
  6  7  2  0
  7  8  1  0
  8  9  2  0
  9 10  1  0
 10 11  2  0
 11 12  1  0
 12 13  2  3
 13 14  1  0
 13 15  1  0
  7 16  1  0
 16  3  1  0
 11  6  1  0
M  END
>  <Energy>  (595) 
9.9918194580713831

>  <Energy_Delta>  (595) 
4.0716415226733886

>  <std_smi>  (595) 
CCN1CCc2c(cccc2NC(C)=O)C1

>  <enum_smi>  (595) 
CCN1CCc2c(cccc2N=C(C)O)C1

>  <enum_code>  (595) 
T

>  <parent_uuid>  (595) 
159e9a67-9ddd-4f06-8bc8-f63c27ed1469

>  <o3da_score>  (595) 
67.333180191441969

>  <o3da_score_rel>  (595) 
0.2680631735757133

>  <o3da_align>  (595) 
0.33731433184840137

>  <RMSD>  (595) 
0.062049872363410689

>  <CONVERGED>  (595) 
0

>  <ENERGY>  (595) 
16.201300037381898

$$$$
373c04e7-4287-447d-9834-40d12fbc9822
     RDKit          3D

 16 17  0  0  0  0  0  0  0  0999 V2000
   -2.6163   30.6797    5.1340 C   0  0  0  0  0  0  0  0  0  0  0  0
   -3.5436   29.4776    4.9872 C   0  0  0  0  0  0  0  0  0  0  0  0
   -3.5124   28.8896    3.6399 N   0  0  0  0  0  0  0  0  0  0  0  0
   -2.2087   28.3259    3.2528 C   0  0  0  0  0  0  0  0  0  0  0  0
   -1.7490   27.1427    4.1154 C   0  0  0  0  0  0  0  0  0  0  0  0
   -2.8565   26.1548    4.3992 C   0  0  0  0  0  0  0  0  0  0  0  0
   -4.1963   26.5116    4.1347 C   0  0  0  0  0  0  0  0  0  0  0  0
   -5.2216   25.5937    4.4060 C   0  0  0  0  0  0  0  0  0  0  0  0
   -4.9273   24.3462    4.9516 C   0  0  0  0  0  0  0  0  0  0  0  0
   -3.6049   24.0057    5.2310 C   0  0  0  0  0  0  0  0  0  0  0  0
   -2.5643   24.9059    4.9772 C   0  0  0  0  0  0  0  0  0  0  0  0
   -1.2414   24.5204    5.2523 N   0  0  0  0  0  0  0  0  0  0  0  0
   -0.7811   24.7253    6.4406 C   0  0  0  0  0  0  0  0  0  0  0  0
    0.6132   24.3470    6.8245 C   0  0  0  0  0  0  0  0  0  0  0  0
   -1.4961   25.2934    7.4318 O   0  0  0  0  0  0  0  0  0  0  0  0
   -4.5391   27.8398    3.4919 C   0  0  0  0  0  0  0  0  0  0  0  0
  1  2  1  0
  2  3  1  0
  3  4  1  0
  4  5  1  0
  5  6  1  0
  6  7  2  0
  7  8  1  0
  8  9  2  0
  9 10  1  0
 10 11  2  0
 11 12  1  0
 12 13  2  3
 13 14  1  0
 13 15  1  0
  7 16  1  0
 16  3  1  0
 11  6  1  0
M  END
>  <Energy>  (596) 
10.539215876989374

>  <Energy_Delta>  (596) 
4.6190379415913796

>  <std_smi>  (596) 
CCN1CCc2c(cccc2NC(C)=O)C1

>  <enum_smi>  (596) 
CCN1CCc2c(cccc2N=C(C)O)C1

>  <enum_code>  (596) 
T

>  <parent_uuid>  (596) 
159e9a67-9ddd-4f06-8bc8-f63c27ed1469

>  <o3da_score>  (596) 
68.928572545742199

>  <o3da_score_rel>  (596) 
0.27441466234211653

>  <o3da_align>  (596) 
0.61011410227687224

>  <RMSD>  (596) 
0.031330671741023434

>  <CONVERGED>  (596) 
0

>  <ENERGY>  (596) 
15.95738837680851

$$$$
373c04e7-4287-447d-9834-40d12fbc9822
     RDKit          3D

 16 17  0  0  0  0  0  0  0  0999 V2000
   -5.1590   27.3295    6.8777 C   0  0  0  0  0  0  0  0  0  0  0  0
   -5.7621   27.8130    5.5617 C   0  0  0  0  0  0  0  0  0  0  0  0
   -4.8279   28.1074    4.4718 N   0  0  0  0  0  0  0  0  0  0  0  0
   -4.0150   26.9557    4.0707 C   0  0  0  0  0  0  0  0  0  0  0  0
   -3.3144   27.2327    2.7341 C   0  0  0  0  0  0  0  0  0  0  0  0
   -2.6209   28.5742    2.6985 C   0  0  0  0  0  0  0  0  0  0  0  0
   -2.9810   29.5635    3.6385 C   0  0  0  0  0  0  0  0  0  0  0  0
   -2.3718   30.8261    3.5805 C   0  0  0  0  0  0  0  0  0  0  0  0
   -1.4425   31.1172    2.5847 C   0  0  0  0  0  0  0  0  0  0  0  0
   -1.1051   30.1442    1.6455 C   0  0  0  0  0  0  0  0  0  0  0  0
   -1.6763   28.8673    1.6979 C   0  0  0  0  0  0  0  0  0  0  0  0
   -1.3418   27.9243    0.7109 N   0  0  0  0  0  0  0  0  0  0  0  0
   -0.2689   27.2252    0.8708 C   0  0  0  0  0  0  0  0  0  0  0  0
    0.1641   26.2022   -0.1295 C   0  0  0  0  0  0  0  0  0  0  0  0
    0.5481   27.3413    1.9366 O   0  0  0  0  0  0  0  0  0  0  0  0
   -3.9655   29.2637    4.7512 C   0  0  0  0  0  0  0  0  0  0  0  0
  1  2  1  0
  2  3  1  0
  3  4  1  0
  4  5  1  0
  5  6  1  0
  6  7  2  0
  7  8  1  0
  8  9  2  0
  9 10  1  0
 10 11  2  0
 11 12  1  0
 12 13  2  3
 13 14  1  0
 13 15  1  0
  7 16  1  0
 16  3  1  0
 11  6  1  0
M  END
>  <Energy>  (597) 
11.1196868350494

>  <Energy_Delta>  (597) 
5.1995088996514056

>  <std_smi>  (597) 
CCN1CCc2c(cccc2NC(C)=O)C1

>  <enum_smi>  (597) 
CCN1CCc2c(cccc2N=C(C)O)C1

>  <enum_code>  (597) 
T

>  <parent_uuid>  (597) 
159e9a67-9ddd-4f06-8bc8-f63c27ed1469

>  <o3da_score>  (597) 
69.870395076987279

>  <o3da_score_rel>  (597) 
0.27816419468193548

>  <o3da_align>  (597) 
0.51458926562970697

>  <RMSD>  (597) 
0.036931576881883914

>  <CONVERGED>  (597) 
0

>  <ENERGY>  (597) 
16.602011969655706

$$$$
373c04e7-4287-447d-9834-40d12fbc9822
     RDKit          3D

 16 17  0  0  0  0  0  0  0  0999 V2000
   -2.4120   30.8153    3.5712 C   0  0  0  0  0  0  0  0  0  0  0  0
   -3.4268   29.6784    3.6500 C   0  0  0  0  0  0  0  0  0  0  0  0
   -3.3699   28.9445    4.9221 N   0  0  0  0  0  0  0  0  0  0  0  0
   -2.0519   28.3096    5.1394 C   0  0  0  0  0  0  0  0  0  0  0  0
   -2.0722   27.0251    5.9821 C   0  0  0  0  0  0  0  0  0  0  0  0
   -3.0013   26.0384    5.3226 C   0  0  0  0  0  0  0  0  0  0  0  0
   -4.2026   26.5648    4.8073 C   0  0  0  0  0  0  0  0  0  0  0  0
   -5.1057   25.7229    4.1519 C   0  0  0  0  0  0  0  0  0  0  0  0
   -4.8070   24.3706    3.9953 C   0  0  0  0  0  0  0  0  0  0  0  0
   -3.6199   23.8518    4.5171 C   0  0  0  0  0  0  0  0  0  0  0  0
   -2.7193   24.6715    5.2059 C   0  0  0  0  0  0  0  0  0  0  0  0
   -1.5376   24.1162    5.7153 N   0  0  0  0  0  0  0  0  0  0  0  0
   -1.5313   23.6668    6.9257 C   0  0  0  0  0  0  0  0  0  0  0  0
   -2.6728   23.6613    7.9023 C   0  0  0  0  0  0  0  0  0  0  0  0
   -0.3832   23.1441    7.3972 O   0  0  0  0  0  0  0  0  0  0  0  0
   -4.5110   28.0211    5.0659 C   0  0  0  0  0  0  0  0  0  0  0  0
  1  2  1  0
  2  3  1  0
  3  4  1  0
  4  5  1  0
  5  6  1  0
  6  7  2  0
  7  8  1  0
  8  9  2  0
  9 10  1  0
 10 11  2  0
 11 12  1  0
 12 13  2  3
 13 14  1  0
 13 15  1  0
  7 16  1  0
 16  3  1  0
 11  6  1  0
M  END
>  <Energy>  (598) 
12.203601668784428

>  <Energy_Delta>  (598) 
6.2834237333864333

>  <std_smi>  (598) 
CCN1CCc2c(cccc2NC(C)=O)C1

>  <enum_smi>  (598) 
CCN1CCc2c(cccc2N=C(C)O)C1

>  <enum_code>  (598) 
T

>  <parent_uuid>  (598) 
159e9a67-9ddd-4f06-8bc8-f63c27ed1469

>  <o3da_score>  (598) 
74.614104669102275

>  <o3da_score_rel>  (598) 
0.29704959180959883

>  <o3da_align>  (598) 
0.20449993201676908

>  <RMSD>  (598) 
0.011881962151090846

>  <CONVERGED>  (598) 
0

>  <ENERGY>  (598) 
21.200960313580431

$$$$
373c04e7-4287-447d-9834-40d12fbc9822
     RDKit          3D

 16 17  0  0  0  0  0  0  0  0999 V2000
   -1.3885   31.1954    2.8154 C   0  0  0  0  0  0  0  0  0  0  0  0
   -2.5301   30.7400    3.7200 C   0  0  0  0  0  0  0  0  0  0  0  0
   -3.2335   29.5584    3.2018 N   0  0  0  0  0  0  0  0  0  0  0  0
   -2.3414   28.3829    3.0920 C   0  0  0  0  0  0  0  0  0  0  0  0
   -3.0121   27.0171    3.3109 C   0  0  0  0  0  0  0  0  0  0  0  0
   -3.6829   27.0271    4.6602 C   0  0  0  0  0  0  0  0  0  0  0  0
   -4.3716   28.2090    5.0009 C   0  0  0  0  0  0  0  0  0  0  0  0
   -5.0053   28.3125    6.2421 C   0  0  0  0  0  0  0  0  0  0  0  0
   -4.9433   27.2509    7.1431 C   0  0  0  0  0  0  0  0  0  0  0  0
   -4.2689   26.0774    6.7964 C   0  0  0  0  0  0  0  0  0  0  0  0
   -3.6506   25.9445    5.5481 C   0  0  0  0  0  0  0  0  0  0  0  0
   -2.9650   24.7585    5.2423 N   0  0  0  0  0  0  0  0  0  0  0  0
   -3.6201   23.8110    4.6597 C   0  0  0  0  0  0  0  0  0  0  0  0
   -2.9751   22.5134    4.2927 C   0  0  0  0  0  0  0  0  0  0  0  0
   -4.9237   23.8973    4.3289 O   0  0  0  0  0  0  0  0  0  0  0  0
   -4.4742   29.2938    3.9550 C   0  0  0  0  0  0  0  0  0  0  0  0
  1  2  1  0
  2  3  1  0
  3  4  1  0
  4  5  1  0
  5  6  1  0
  6  7  2  0
  7  8  1  0
  8  9  2  0
  9 10  1  0
 10 11  2  0
 11 12  1  0
 12 13  2  3
 13 14  1  0
 13 15  1  0
  7 16  1  0
 16  3  1  0
 11  6  1  0
M  END
>  <Energy>  (599) 
15.081739405639439

>  <Energy_Delta>  (599) 
9.1615614702414447

>  <std_smi>  (599) 
CCN1CCc2c(cccc2NC(C)=O)C1

>  <enum_smi>  (599) 
CCN1CCc2c(cccc2N=C(C)O)C1

>  <enum_code>  (599) 
T

>  <parent_uuid>  (599) 
159e9a67-9ddd-4f06-8bc8-f63c27ed1469

>  <o3da_score>  (599) 
71.137734269694789

>  <o3da_score_rel>  (599) 
0.28320965614726573

>  <o3da_align>  (599) 
0.4532255432895167

>  <RMSD>  (599) 
0.044361725929709848

>  <CONVERGED>  (599) 
0

>  <ENERGY>  (599) 
20.498077188508091

$$$$
596bd142-be4a-4ed5-a27f-f6249c73e23a
     RDKit          3D

 16 17  0  0  0  0  0  0  0  0999 V2000
   -1.9821   30.5038    3.5913 C   0  0  0  0  0  0  0  0  0  0  0  0
   -3.3412   30.0100    4.0516 C   0  0  0  0  0  0  0  0  0  0  0  0
   -3.2663   28.6042    4.5344 N   0  0  0  0  0  4  0  0  0  0  0  0
   -2.3725   28.3828    5.7526 C   0  0  0  0  0  0  0  0  0  0  0  0
   -2.7107   27.0953    6.4980 C   0  0  0  0  0  0  0  0  0  0  0  0
   -3.2879   26.0497    5.5725 C   0  0  0  0  0  0  0  0  0  0  0  0
   -4.3897   26.4500    4.7872 C   0  0  0  0  0  0  0  0  0  0  0  0
   -5.1021   25.5191    4.0335 C   0  0  0  0  0  0  0  0  0  0  0  0
   -4.6647   24.2004    4.0096 C   0  0  0  0  0  0  0  0  0  0  0  0
   -3.4886   23.8416    4.6766 C   0  0  0  0  0  0  0  0  0  0  0  0
   -2.7475   24.7683    5.4276 C   0  0  0  0  0  0  0  0  0  0  0  0
   -1.5542   24.3937    5.9400 N   0  0  0  0  0  2  0  0  0  0  0  0
   -0.4833   25.0735    5.4940 C   0  0  0  0  0  0  0  0  0  0  0  0
    0.7833   24.4110    5.9834 C   0  0  0  0  0  0  0  0  0  0  0  0
   -0.4261   26.1019    4.8122 O   0  0  0  0  0  0  0  0  0  0  0  0
   -4.6177   27.9270    4.6891 C   0  0  0  0  0  0  0  0  0  0  0  0
  1  2  1  0
  2  3  1  0
  3  4  1  0
  4  5  1  0
  5  6  1  0
  6  7  2  0
  7  8  1  0
  8  9  2  0
  9 10  1  0
 10 11  2  0
 11 12  1  0
 12 13  1  0
 13 14  1  0
 13 15  2  0
  7 16  1  0
 16  3  1  0
 11  6  1  0
M  CHG  2   3   1  12  -1
M  END
>  <Energy>  (600) 
-18.098371413378398

>  <Energy_Delta>  (600) 
0

>  <std_smi>  (600) 
CCN1CCc2c(cccc2NC(C)=O)C1

>  <enum_smi>  (600) 
CC[NH+]1CCc2c(cccc2[N-]C(C)=O)C1

>  <enum_code>  (600) 
M

>  <parent_uuid>  (600) 
159e9a67-9ddd-4f06-8bc8-f63c27ed1469

>  <o3da_score>  (600) 
77.423724691990316

>  <o3da_score_rel>  (600) 
0.30823509734692622

>  <o3da_align>  (600) 
0.41070252622833225

>  <RMSD>  (600) 
6.1446347064513041e-05

>  <CONVERGED>  (600) 
0

>  <ENERGY>  (600) 
-18.098371413550566

$$$$
596bd142-be4a-4ed5-a27f-f6249c73e23a
     RDKit          3D

 16 17  0  0  0  0  0  0  0  0999 V2000
   -9.4994   23.5842    3.7738 C   0  0  0  0  0  0  0  0  0  0  0  0
   -8.1876   23.0381    3.2412 C   0  0  0  0  0  0  0  0  0  0  0  0
   -7.0702   23.9897    3.4882 N   0  0  0  0  0  4  0  0  0  0  0  0
   -7.2042   25.3428    2.7934 C   0  0  0  0  0  0  0  0  0  0  0  0
   -5.8657   26.0614    2.6525 C   0  0  0  0  0  0  0  0  0  0  0  0
   -4.9087   25.6804    3.7579 C   0  0  0  0  0  0  0  0  0  0  0  0
   -4.6913   24.2993    3.9478 C   0  0  0  0  0  0  0  0  0  0  0  0
   -3.7016   23.8478    4.8189 C   0  0  0  0  0  0  0  0  0  0  0  0
   -2.9800   24.7801    5.5544 C   0  0  0  0  0  0  0  0  0  0  0  0
   -3.2994   26.1392    5.4663 C   0  0  0  0  0  0  0  0  0  0  0  0
   -4.3043   26.6124    4.6070 C   0  0  0  0  0  0  0  0  0  0  0  0
   -4.6545   27.9167    4.6621 N   0  0  0  0  0  2  0  0  0  0  0  0
   -5.9255   28.1697    5.0208 C   0  0  0  0  0  0  0  0  0  0  0  0
   -6.1081   29.6526    5.2455 C   0  0  0  0  0  0  0  0  0  0  0  0
   -6.8805   27.3970    5.1495 O   0  0  0  0  0  0  0  0  0  0  0  0
   -5.6878   23.3876    3.3005 C   0  0  0  0  0  0  0  0  0  0  0  0
  1  2  1  0
  2  3  1  0
  3  4  1  0
  4  5  1  0
  5  6  1  0
  6  7  2  0
  7  8  1  0
  8  9  2  0
  9 10  1  0
 10 11  2  0
 11 12  1  0
 12 13  1  0
 13 14  1  0
 13 15  2  0
  7 16  1  0
 16  3  1  0
 11  6  1  0
M  CHG  2   3   1  12  -1
M  END
>  <Energy>  (601) 
-18.098371413337439

>  <Energy_Delta>  (601) 
4.0959236002890975e-11

>  <std_smi>  (601) 
CCN1CCc2c(cccc2NC(C)=O)C1

>  <enum_smi>  (601) 
CC[NH+]1CCc2c(cccc2[N-]C(C)=O)C1

>  <enum_code>  (601) 
M

>  <parent_uuid>  (601) 
159e9a67-9ddd-4f06-8bc8-f63c27ed1469

>  <o3da_score>  (601) 
68.205344145067073

>  <o3da_score_rel>  (601) 
0.27153538499692287

>  <o3da_align>  (601) 
0.36105316751513056

>  <RMSD>  (601) 
5.8352673260101132e-05

>  <CONVERGED>  (601) 
0

>  <ENERGY>  (601) 
-18.098371413519189

$$$$
596bd142-be4a-4ed5-a27f-f6249c73e23a
     RDKit          3D

 16 17  0  0  0  0  0  0  0  0999 V2000
   -3.4535   29.9383    2.4288 C   0  0  0  0  0  0  0  0  0  0  0  0
   -3.1462   29.9308    3.9148 C   0  0  0  0  0  0  0  0  0  0  0  0
   -3.1885   28.5480    4.4609 N   0  0  0  0  0  4  0  0  0  0  0  0
   -2.3402   28.3747    5.7174 C   0  0  0  0  0  0  0  0  0  0  0  0
   -2.6885   27.1007    6.4814 C   0  0  0  0  0  0  0  0  0  0  0  0
   -3.2845   26.0461    5.5775 C   0  0  0  0  0  0  0  0  0  0  0  0
   -4.3787   26.4459    4.7812 C   0  0  0  0  0  0  0  0  0  0  0  0
   -5.1096   25.5087    4.0536 C   0  0  0  0  0  0  0  0  0  0  0  0
   -4.6943   24.1826    4.0623 C   0  0  0  0  0  0  0  0  0  0  0  0
   -3.5183   23.8228    4.7292 C   0  0  0  0  0  0  0  0  0  0  0  0
   -2.7593   24.7568    5.4526 C   0  0  0  0  0  0  0  0  0  0  0  0
   -1.5594   24.3848    5.9514 N   0  0  0  0  0  2  0  0  0  0  0  0
   -0.4943   25.0542    5.4752 C   0  0  0  0  0  0  0  0  0  0  0  0
    0.7791   24.3954    5.9520 C   0  0  0  0  0  0  0  0  0  0  0  0
   -0.4465   26.0717    4.7760 O   0  0  0  0  0  0  0  0  0  0  0  0
   -4.5634   27.9252    4.6262 C   0  0  0  0  0  0  0  0  0  0  0  0
  1  2  1  0
  2  3  1  0
  3  4  1  0
  4  5  1  0
  5  6  1  0
  6  7  2  0
  7  8  1  0
  8  9  2  0
  9 10  1  0
 10 11  2  0
 11 12  1  0
 12 13  1  0
 13 14  1  0
 13 15  2  0
  7 16  1  0
 16  3  1  0
 11  6  1  0
M  CHG  2   3   1  12  -1
M  END
>  <Energy>  (602) 
-17.791106670339889

>  <Energy_Delta>  (602) 
0.30726474303850893

>  <std_smi>  (602) 
CCN1CCc2c(cccc2NC(C)=O)C1

>  <enum_smi>  (602) 
CC[NH+]1CCc2c(cccc2[N-]C(C)=O)C1

>  <enum_code>  (602) 
M

>  <parent_uuid>  (602) 
159e9a67-9ddd-4f06-8bc8-f63c27ed1469

>  <o3da_score>  (602) 
71.667821516209173

>  <o3da_score_rel>  (602) 
0.28532001049513173

>  <o3da_align>  (602) 
0.40474155937806788

>  <RMSD>  (602) 
7.012830322344458e-05

>  <CONVERGED>  (602) 
0

>  <ENERGY>  (602) 
-17.791106672356793

$$$$
596bd142-be4a-4ed5-a27f-f6249c73e23a
     RDKit          3D

 16 17  0  0  0  0  0  0  0  0999 V2000
   -3.9202   30.9421    4.6423 C   0  0  0  0  0  0  0  0  0  0  0  0
   -3.1277   29.8959    3.8808 C   0  0  0  0  0  0  0  0  0  0  0  0
   -3.1978   28.5560    4.5186 N   0  0  0  0  0  4  0  0  0  0  0  0
   -2.3469   28.3716    5.7661 C   0  0  0  0  0  0  0  0  0  0  0  0
   -2.7023   27.0876    6.5114 C   0  0  0  0  0  0  0  0  0  0  0  0
   -3.2923   26.0420    5.5907 C   0  0  0  0  0  0  0  0  0  0  0  0
   -4.3837   26.4462    4.7916 C   0  0  0  0  0  0  0  0  0  0  0  0
   -5.1089   25.5140    4.0520 C   0  0  0  0  0  0  0  0  0  0  0  0
   -4.6889   24.1894    4.0488 C   0  0  0  0  0  0  0  0  0  0  0  0
   -3.5133   23.8275    4.7152 C   0  0  0  0  0  0  0  0  0  0  0  0
   -2.7606   24.7569    5.4511 C   0  0  0  0  0  0  0  0  0  0  0  0
   -1.5585   24.3865    5.9457 N   0  0  0  0  0  2  0  0  0  0  0  0
   -0.4982   25.0665    5.4737 C   0  0  0  0  0  0  0  0  0  0  0  0
    0.7800   24.4132    5.9450 C   0  0  0  0  0  0  0  0  0  0  0  0
   -0.4582   26.0892    4.7815 O   0  0  0  0  0  0  0  0  0  0  0  0
   -4.5716   27.9263    4.6472 C   0  0  0  0  0  0  0  0  0  0  0  0
  1  2  1  0
  2  3  1  0
  3  4  1  0
  4  5  1  0
  5  6  1  0
  6  7  2  0
  7  8  1  0
  8  9  2  0
  9 10  1  0
 10 11  2  0
 11 12  1  0
 12 13  1  0
 13 14  1  0
 13 15  2  0
  7 16  1  0
 16  3  1  0
 11  6  1  0
M  CHG  2   3   1  12  -1
M  END
>  <Energy>  (603) 
-17.527327030163296

>  <Energy_Delta>  (603) 
0.57104438321510287

>  <std_smi>  (603) 
CCN1CCc2c(cccc2NC(C)=O)C1

>  <enum_smi>  (603) 
CC[NH+]1CCc2c(cccc2[N-]C(C)=O)C1

>  <enum_code>  (603) 
M

>  <parent_uuid>  (603) 
159e9a67-9ddd-4f06-8bc8-f63c27ed1469

>  <o3da_score>  (603) 
71.982704715401255

>  <o3da_score_rel>  (603) 
0.28657360626234657

>  <o3da_align>  (603) 
0.39177550431647867

>  <RMSD>  (603) 
6.8298496605383838e-05

>  <CONVERGED>  (603) 
0

>  <ENERGY>  (603) 
-17.527327029378029

$$$$
596bd142-be4a-4ed5-a27f-f6249c73e23a
     RDKit          3D

 16 17  0  0  0  0  0  0  0  0999 V2000
   -2.8932   31.2897    5.0355 C   0  0  0  0  0  0  0  0  0  0  0  0
   -4.0997   30.3706    5.0908 C   0  0  0  0  0  0  0  0  0  0  0  0
   -3.6740   28.9415    5.1536 N   0  0  0  0  0  4  0  0  0  0  0  0
   -3.1587   28.4832    6.4996 C   0  0  0  0  0  0  0  0  0  0  0  0
   -2.4163   27.1719    6.3191 C   0  0  0  0  0  0  0  0  0  0  0  0
   -3.1762   26.1626    5.4812 C   0  0  0  0  0  0  0  0  0  0  0  0
   -4.3132   26.5544    4.7386 C   0  0  0  0  0  0  0  0  0  0  0  0
   -5.0439   25.6000    4.0175 C   0  0  0  0  0  0  0  0  0  0  0  0
   -4.6259   24.2762    3.9974 C   0  0  0  0  0  0  0  0  0  0  0  0
   -3.4670   23.9061    4.6765 C   0  0  0  0  0  0  0  0  0  0  0  0
   -2.7053   24.8357    5.4025 C   0  0  0  0  0  0  0  0  0  0  0  0
   -1.5760   24.4094    6.0132 N   0  0  0  0  0  2  0  0  0  0  0  0
   -0.4206   24.8294    5.4736 C   0  0  0  0  0  0  0  0  0  0  0  0
    0.7374   24.1005    6.1145 C   0  0  0  0  0  0  0  0  0  0  0  0
   -0.2159   25.6856    4.6101 O   0  0  0  0  0  0  0  0  0  0  0  0
   -4.7555   27.9850    4.7118 C   0  0  0  0  0  0  0  0  0  0  0  0
  1  2  1  0
  2  3  1  0
  3  4  1  0
  4  5  1  0
  5  6  1  0
  6  7  2  0
  7  8  1  0
  8  9  2  0
  9 10  1  0
 10 11  2  0
 11 12  1  0
 12 13  1  0
 13 14  1  0
 13 15  2  0
  7 16  1  0
 16  3  1  0
 11  6  1  0
M  CHG  2   3   1  12  -1
M  END
>  <Energy>  (604) 
-17.045085806703575

>  <Energy_Delta>  (604) 
1.0532856066748231

>  <std_smi>  (604) 
CCN1CCc2c(cccc2NC(C)=O)C1

>  <enum_smi>  (604) 
CC[NH+]1CCc2c(cccc2[N-]C(C)=O)C1

>  <enum_code>  (604) 
M

>  <parent_uuid>  (604) 
159e9a67-9ddd-4f06-8bc8-f63c27ed1469

>  <o3da_score>  (604) 
66.713073893528673

>  <o3da_score_rel>  (604) 
0.26559444030483104

>  <o3da_align>  (604) 
0.31346734638146589

>  <RMSD>  (604) 
6.7910384029359425e-05

>  <CONVERGED>  (604) 
0

>  <ENERGY>  (604) 
-17.045085806780175

$$$$
596bd142-be4a-4ed5-a27f-f6249c73e23a
     RDKit          3D

 16 17  0  0  0  0  0  0  0  0999 V2000
   -6.8057   23.7882    2.5913 C   0  0  0  0  0  0  0  0  0  0  0  0
   -5.9303   23.3410    3.7477 C   0  0  0  0  0  0  0  0  0  0  0  0
   -4.9177   24.3859    4.0799 N   0  0  0  0  0  4  0  0  0  0  0  0
   -5.4521   25.5806    4.8376 C   0  0  0  0  0  0  0  0  0  0  0  0
   -4.4348   26.7042    4.7610 C   0  0  0  0  0  0  0  0  0  0  0  0
   -3.0206   26.2552    5.0717 C   0  0  0  0  0  0  0  0  0  0  0  0
   -2.7000   24.8802    5.1368 C   0  0  0  0  0  0  0  0  0  0  0  0
   -1.4038   24.4771    5.4860 C   0  0  0  0  0  0  0  0  0  0  0  0
   -0.4223   25.4292    5.7263 C   0  0  0  0  0  0  0  0  0  0  0  0
   -0.7249   26.7831    5.5964 C   0  0  0  0  0  0  0  0  0  0  0  0
   -2.0097   27.2238    5.2406 C   0  0  0  0  0  0  0  0  0  0  0  0
   -2.2225   28.5529    5.1054 N   0  0  0  0  0  2  0  0  0  0  0  0
   -2.4075   28.9949    3.8513 C   0  0  0  0  0  0  0  0  0  0  0  0
   -2.4063   30.5057    3.8365 C   0  0  0  0  0  0  0  0  0  0  0  0
   -2.5884   28.3624    2.8083 O   0  0  0  0  0  0  0  0  0  0  0  0
   -3.7330   23.8375    4.8385 C   0  0  0  0  0  0  0  0  0  0  0  0
  1  2  1  0
  2  3  1  0
  3  4  1  0
  4  5  1  0
  5  6  1  0
  6  7  2  0
  7  8  1  0
  8  9  2  0
  9 10  1  0
 10 11  2  0
 11 12  1  0
 12 13  1  0
 13 14  1  0
 13 15  2  0
  7 16  1  0
 16  3  1  0
 11  6  1  0
M  CHG  2   3   1  12  -1
M  END
>  <Energy>  (605) 
-17.04508580612621

>  <Energy_Delta>  (605) 
1.0532856072521888

>  <std_smi>  (605) 
CCN1CCc2c(cccc2NC(C)=O)C1

>  <enum_smi>  (605) 
CC[NH+]1CCc2c(cccc2[N-]C(C)=O)C1

>  <enum_code>  (605) 
M

>  <parent_uuid>  (605) 
159e9a67-9ddd-4f06-8bc8-f63c27ed1469

>  <o3da_score>  (605) 
84.098113121870483

>  <o3da_score_rel>  (605) 
0.33480680744741098

>  <o3da_align>  (605) 
0.41738973151256142

>  <RMSD>  (605) 
7.2211316189205153e-05

>  <CONVERGED>  (605) 
0

>  <ENERGY>  (605) 
-17.045085806726721

$$$$
596bd142-be4a-4ed5-a27f-f6249c73e23a
     RDKit          3D

 16 17  0  0  0  0  0  0  0  0999 V2000
   -3.4241   30.1387    4.1011 C   0  0  0  0  0  0  0  0  0  0  0  0
   -3.4880   28.8820    4.9498 C   0  0  0  0  0  0  0  0  0  0  0  0
   -4.5029   27.9300    4.4101 N   0  0  0  0  0  4  0  0  0  0  0  0
   -5.9423   28.2958    4.6951 C   0  0  0  0  0  0  0  0  0  0  0  0
   -6.8436   27.4860    3.7812 C   0  0  0  0  0  0  0  0  0  0  0  0
   -6.4914   26.0120    3.7436 C   0  0  0  0  0  0  0  0  0  0  0  0
   -5.2744   25.5487    4.2931 C   0  0  0  0  0  0  0  0  0  0  0  0
   -4.9880   24.1767    4.3083 C   0  0  0  0  0  0  0  0  0  0  0  0
   -5.8810   23.2753    3.7446 C   0  0  0  0  0  0  0  0  0  0  0  0
   -7.0489   23.7416    3.1446 C   0  0  0  0  0  0  0  0  0  0  0  0
   -7.3651   25.1090    3.1034 C   0  0  0  0  0  0  0  0  0  0  0  0
   -8.5028   25.4906    2.4787 N   0  0  0  0  0  2  0  0  0  0  0  0
   -8.3456   26.1343    1.3110 C   0  0  0  0  0  0  0  0  0  0  0  0
   -9.6855   26.2936    0.6311 C   0  0  0  0  0  0  0  0  0  0  0  0
   -7.3255   26.5920    0.7911 O   0  0  0  0  0  0  0  0  0  0  0  0
   -4.2780   26.5085    4.8669 C   0  0  0  0  0  0  0  0  0  0  0  0
  1  2  1  0
  2  3  1  0
  3  4  1  0
  4  5  1  0
  5  6  1  0
  6  7  2  0
  7  8  1  0
  8  9  2  0
  9 10  1  0
 10 11  2  0
 11 12  1  0
 12 13  1  0
 13 14  1  0
 13 15  2  0
  7 16  1  0
 16  3  1  0
 11  6  1  0
M  CHG  2   3   1  12  -1
M  END
>  <Energy>  (606) 
-17.045085806032024

>  <Energy_Delta>  (606) 
1.0532856073463748

>  <std_smi>  (606) 
CCN1CCc2c(cccc2NC(C)=O)C1

>  <enum_smi>  (606) 
CC[NH+]1CCc2c(cccc2[N-]C(C)=O)C1

>  <enum_code>  (606) 
M

>  <parent_uuid>  (606) 
159e9a67-9ddd-4f06-8bc8-f63c27ed1469

>  <o3da_score>  (606) 
71.207391610245551

>  <o3da_score_rel>  (606) 
0.28348697214092278

>  <o3da_align>  (606) 
0.35256599287752455

>  <RMSD>  (606) 
5.9097035922354386e-05

>  <CONVERGED>  (606) 
0

>  <ENERGY>  (606) 
-17.045085806788766

$$$$
596bd142-be4a-4ed5-a27f-f6249c73e23a
     RDKit          3D

 16 17  0  0  0  0  0  0  0  0999 V2000
   -0.2297   25.0833    5.6055 C   0  0  0  0  0  0  0  0  0  0  0  0
   -1.4590   24.2206    5.8226 C   0  0  0  0  0  0  0  0  0  0  0  0
   -2.6400   24.7701    5.0922 N   0  0  0  0  0  4  0  0  0  0  0  0
   -3.7835   23.7826    4.9921 C   0  0  0  0  0  0  0  0  0  0  0  0
   -4.7439   24.2481    3.9144 C   0  0  0  0  0  0  0  0  0  0  0  0
   -5.1097   25.7134    4.0335 C   0  0  0  0  0  0  0  0  0  0  0  0
   -4.3754   26.5704    4.8838 C   0  0  0  0  0  0  0  0  0  0  0  0
   -4.7614   27.9100    5.0324 C   0  0  0  0  0  0  0  0  0  0  0  0
   -5.8395   28.4061    4.3119 C   0  0  0  0  0  0  0  0  0  0  0  0
   -6.5204   27.5746    3.4252 C   0  0  0  0  0  0  0  0  0  0  0  0
   -6.1577   26.2304    3.2438 C   0  0  0  0  0  0  0  0  0  0  0  0
   -6.8482   25.4908    2.3458 N   0  0  0  0  0  2  0  0  0  0  0  0
   -6.1899   25.1603    1.2234 C   0  0  0  0  0  0  0  0  0  0  0  0
   -7.1476   24.5388    0.2337 C   0  0  0  0  0  0  0  0  0  0  0  0
   -4.9939   25.2729    0.9453 O   0  0  0  0  0  0  0  0  0  0  0  0
   -3.1817   26.0687    5.6384 C   0  0  0  0  0  0  0  0  0  0  0  0
  1  2  1  0
  2  3  1  0
  3  4  1  0
  4  5  1  0
  5  6  1  0
  6  7  2  0
  7  8  1  0
  8  9  2  0
  9 10  1  0
 10 11  2  0
 11 12  1  0
 12 13  1  0
 13 14  1  0
 13 15  2  0
  7 16  1  0
 16  3  1  0
 11  6  1  0
M  CHG  2   3   1  12  -1
M  END
>  <Energy>  (607) 
-17.010944846525174

>  <Energy_Delta>  (607) 
1.0874265668532246

>  <std_smi>  (607) 
CCN1CCc2c(cccc2NC(C)=O)C1

>  <enum_smi>  (607) 
CC[NH+]1CCc2c(cccc2[N-]C(C)=O)C1

>  <enum_code>  (607) 
M

>  <parent_uuid>  (607) 
159e9a67-9ddd-4f06-8bc8-f63c27ed1469

>  <o3da_score>  (607) 
66.987270053032958

>  <o3da_score_rel>  (607) 
0.2666860550553895

>  <o3da_align>  (607) 
0.32209207353452368

>  <RMSD>  (607) 
6.8035823539318738e-05

>  <CONVERGED>  (607) 
0

>  <ENERGY>  (607) 
-17.010944846581189

$$$$
596bd142-be4a-4ed5-a27f-f6249c73e23a
     RDKit          3D

 16 17  0  0  0  0  0  0  0  0999 V2000
   -2.3932   29.0279    4.2640 C   0  0  0  0  0  0  0  0  0  0  0  0
   -3.6963   29.0526    5.0412 C   0  0  0  0  0  0  0  0  0  0  0  0
   -4.6501   28.0241    4.5288 N   0  0  0  0  0  4  0  0  0  0  0  0
   -6.0649   28.2314    5.0271 C   0  0  0  0  0  0  0  0  0  0  0  0
   -7.0156   27.4281    4.1602 C   0  0  0  0  0  0  0  0  0  0  0  0
   -6.5645   25.9976    3.9471 C   0  0  0  0  0  0  0  0  0  0  0  0
   -5.2515   25.6002    4.2858 C   0  0  0  0  0  0  0  0  0  0  0  0
   -4.8651   24.2603    4.1415 C   0  0  0  0  0  0  0  0  0  0  0  0
   -5.7589   23.3314    3.6258 C   0  0  0  0  0  0  0  0  0  0  0  0
   -7.0312   23.7404    3.2319 C   0  0  0  0  0  0  0  0  0  0  0  0
   -7.4508   25.0747    3.3538 C   0  0  0  0  0  0  0  0  0  0  0  0
   -8.6914   25.4031    2.9257 N   0  0  0  0  0  2  0  0  0  0  0  0
   -8.7524   26.1501    1.8119 C   0  0  0  0  0  0  0  0  0  0  0  0
  -10.1838   26.2436    1.3373 C   0  0  0  0  0  0  0  0  0  0  0  0
   -7.8553   26.7373    1.2029 O   0  0  0  0  0  0  0  0  0  0  0  0
   -4.2557   26.5934    4.8035 C   0  0  0  0  0  0  0  0  0  0  0  0
  1  2  1  0
  2  3  1  0
  3  4  1  0
  4  5  1  0
  5  6  1  0
  6  7  2  0
  7  8  1  0
  8  9  2  0
  9 10  1  0
 10 11  2  0
 11 12  1  0
 12 13  1  0
 13 14  1  0
 13 15  2  0
  7 16  1  0
 16  3  1  0
 11  6  1  0
M  CHG  2   3   1  12  -1
M  END
>  <Energy>  (608) 
-17.010944845840449

>  <Energy_Delta>  (608) 
1.0874265675379498

>  <std_smi>  (608) 
CCN1CCc2c(cccc2NC(C)=O)C1

>  <enum_smi>  (608) 
CC[NH+]1CCc2c(cccc2[N-]C(C)=O)C1

>  <enum_code>  (608) 
M

>  <parent_uuid>  (608) 
159e9a67-9ddd-4f06-8bc8-f63c27ed1469

>  <o3da_score>  (608) 
70.657483977582785

>  <o3da_score_rel>  (608) 
0.28129770995597964

>  <o3da_align>  (608) 
0.42347879565207319

>  <RMSD>  (608) 
6.0742017018019137e-05

>  <CONVERGED>  (608) 
0

>  <ENERGY>  (608) 
-17.010944846702291

$$$$
596bd142-be4a-4ed5-a27f-f6249c73e23a
     RDKit          3D

 16 17  0  0  0  0  0  0  0  0999 V2000
   -6.1761   28.6317    3.1764 C   0  0  0  0  0  0  0  0  0  0  0  0
   -6.0420   28.3690    4.6648 C   0  0  0  0  0  0  0  0  0  0  0  0
   -4.6793   27.9061    5.0503 N   0  0  0  0  0  4  0  0  0  0  0  0
   -3.5549   28.8822    4.8043 C   0  0  0  0  0  0  0  0  0  0  0  0
   -2.3822   28.5080    5.6936 C   0  0  0  0  0  0  0  0  0  0  0  0
   -2.0756   27.0212    5.6996 C   0  0  0  0  0  0  0  0  0  0  0  0
   -2.9703   26.0939    5.1155 C   0  0  0  0  0  0  0  0  0  0  0  0
   -2.6425   24.7320    5.0719 C   0  0  0  0  0  0  0  0  0  0  0  0
   -1.4584   24.2856    5.6428 C   0  0  0  0  0  0  0  0  0  0  0  0
   -0.6119   25.1915    6.2788 C   0  0  0  0  0  0  0  0  0  0  0  0
   -0.9112   26.5616    6.3488 C   0  0  0  0  0  0  0  0  0  0  0  0
   -0.0592   27.3767    7.0119 N   0  0  0  0  0  2  0  0  0  0  0  0
   -0.4971   27.8494    8.1899 C   0  0  0  0  0  0  0  0  0  0  0  0
    0.6333   28.5417    8.9150 C   0  0  0  0  0  0  0  0  0  0  0  0
   -1.6244   27.8091    8.6882 O   0  0  0  0  0  0  0  0  0  0  0  0
   -4.2750   26.5504    4.5360 C   0  0  0  0  0  0  0  0  0  0  0  0
  1  2  1  0
  2  3  1  0
  3  4  1  0
  4  5  1  0
  5  6  1  0
  6  7  2  0
  7  8  1  0
  8  9  2  0
  9 10  1  0
 10 11  2  0
 11 12  1  0
 12 13  1  0
 13 14  1  0
 13 15  2  0
  7 16  1  0
 16  3  1  0
 11  6  1  0
M  CHG  2   3   1  12  -1
M  END
>  <Energy>  (609) 
-16.553848802802626

>  <Energy_Delta>  (609) 
1.5445226105757719

>  <std_smi>  (609) 
CCN1CCc2c(cccc2NC(C)=O)C1

>  <enum_smi>  (609) 
CC[NH+]1CCc2c(cccc2[N-]C(C)=O)C1

>  <enum_code>  (609) 
M

>  <parent_uuid>  (609) 
159e9a67-9ddd-4f06-8bc8-f63c27ed1469

>  <o3da_score>  (609) 
67.750030978447072

>  <o3da_score_rel>  (609) 
0.26972271712548201

>  <o3da_align>  (609) 
0.19706944799823747

>  <RMSD>  (609) 
5.5171110131649044e-05

>  <CONVERGED>  (609) 
0

>  <ENERGY>  (609) 
-16.55384880310924

$$$$
596bd142-be4a-4ed5-a27f-f6249c73e23a
     RDKit          3D

 16 17  0  0  0  0  0  0  0  0999 V2000
   -3.2598   29.9700    2.7638 C   0  0  0  0  0  0  0  0  0  0  0  0
   -2.7471   29.1088    3.9050 C   0  0  0  0  0  0  0  0  0  0  0  0
   -3.8167   28.9748    4.9764 N   0  0  0  0  0  4  0  0  0  0  0  0
   -3.2340   28.5970    6.3222 C   0  0  0  0  0  0  0  0  0  0  0  0
   -2.5152   27.2608    6.2544 C   0  0  0  0  0  0  0  0  0  0  0  0
   -3.2555   26.2051    5.4555 C   0  0  0  0  0  0  0  0  0  0  0  0
   -4.4165   26.5380    4.7212 C   0  0  0  0  0  0  0  0  0  0  0  0
   -5.1342   25.5391    4.0498 C   0  0  0  0  0  0  0  0  0  0  0  0
   -4.6748   24.2289    4.0624 C   0  0  0  0  0  0  0  0  0  0  0  0
   -3.4845   23.9191    4.7175 C   0  0  0  0  0  0  0  0  0  0  0  0
   -2.7364   24.8960    5.3937 C   0  0  0  0  0  0  0  0  0  0  0  0
   -1.5625   24.5367    5.9621 N   0  0  0  0  0  2  0  0  0  0  0  0
   -0.4557   24.9779    5.3414 C   0  0  0  0  0  0  0  0  0  0  0  0
    0.7627   24.3064    5.9307 C   0  0  0  0  0  0  0  0  0  0  0  0
   -0.3321   25.8165    4.4450 O   0  0  0  0  0  0  0  0  0  0  0  0
   -4.8856   27.9582    4.6417 C   0  0  0  0  0  0  0  0  0  0  0  0
  1  2  1  0
  2  3  1  0
  3  4  1  0
  4  5  1  0
  5  6  1  0
  6  7  2  0
  7  8  1  0
  8  9  2  0
  9 10  1  0
 10 11  2  0
 11 12  1  0
 12 13  1  0
 13 14  1  0
 13 15  2  0
  7 16  1  0
 16  3  1  0
 11  6  1  0
M  CHG  2   3   1  12  -1
M  END
>  <Energy>  (610) 
-16.0020516946127

>  <Energy_Delta>  (610) 
2.0963197187656988

>  <std_smi>  (610) 
CCN1CCc2c(cccc2NC(C)=O)C1

>  <enum_smi>  (610) 
CC[NH+]1CCc2c(cccc2[N-]C(C)=O)C1

>  <enum_code>  (610) 
M

>  <parent_uuid>  (610) 
159e9a67-9ddd-4f06-8bc8-f63c27ed1469

>  <o3da_score>  (610) 
71.881020157808479

>  <o3da_score_rel>  (610) 
0.28616878526422257

>  <o3da_align>  (610) 
0.3856343843051786

>  <RMSD>  (610) 
6.8618175952720058e-05

>  <CONVERGED>  (610) 
0

>  <ENERGY>  (610) 
-16.002051695380846

$$$$
596bd142-be4a-4ed5-a27f-f6249c73e23a
     RDKit          3D

 16 17  0  0  0  0  0  0  0  0999 V2000
   -3.2598   29.9700    2.7637 C   0  0  0  0  0  0  0  0  0  0  0  0
   -2.7471   29.1088    3.9049 C   0  0  0  0  0  0  0  0  0  0  0  0
   -3.8167   28.9748    4.9763 N   0  0  0  0  0  4  0  0  0  0  0  0
   -3.2339   28.5970    6.3222 C   0  0  0  0  0  0  0  0  0  0  0  0
   -2.5152   27.2609    6.2544 C   0  0  0  0  0  0  0  0  0  0  0  0
   -3.2555   26.2051    5.4555 C   0  0  0  0  0  0  0  0  0  0  0  0
   -4.4165   26.5380    4.7212 C   0  0  0  0  0  0  0  0  0  0  0  0
   -5.1342   25.5391    4.0498 C   0  0  0  0  0  0  0  0  0  0  0  0
   -4.6748   24.2289    4.0625 C   0  0  0  0  0  0  0  0  0  0  0  0
   -3.4845   23.9191    4.7176 C   0  0  0  0  0  0  0  0  0  0  0  0
   -2.7364   24.8960    5.3937 C   0  0  0  0  0  0  0  0  0  0  0  0
   -1.5625   24.5367    5.9621 N   0  0  0  0  0  2  0  0  0  0  0  0
   -0.4557   24.9779    5.3414 C   0  0  0  0  0  0  0  0  0  0  0  0
    0.7627   24.3064    5.9307 C   0  0  0  0  0  0  0  0  0  0  0  0
   -0.3321   25.8165    4.4449 O   0  0  0  0  0  0  0  0  0  0  0  0
   -4.8855   27.9582    4.6417 C   0  0  0  0  0  0  0  0  0  0  0  0
  1  2  1  0
  2  3  1  0
  3  4  1  0
  4  5  1  0
  5  6  1  0
  6  7  2  0
  7  8  1  0
  8  9  2  0
  9 10  1  0
 10 11  2  0
 11 12  1  0
 12 13  1  0
 13 14  1  0
 13 15  2  0
  7 16  1  0
 16  3  1  0
 11  6  1  0
M  CHG  2   3   1  12  -1
M  END
>  <Energy>  (611) 
-16.002051694610572

>  <Energy_Delta>  (611) 
2.0963197187678269

>  <std_smi>  (611) 
CCN1CCc2c(cccc2NC(C)=O)C1

>  <enum_smi>  (611) 
CC[NH+]1CCc2c(cccc2[N-]C(C)=O)C1

>  <enum_code>  (611) 
M

>  <parent_uuid>  (611) 
159e9a67-9ddd-4f06-8bc8-f63c27ed1469

>  <o3da_score>  (611) 
71.881409902521554

>  <o3da_score_rel>  (611) 
0.28617033689455362

>  <o3da_align>  (611) 
0.38562005658147219

>  <RMSD>  (611) 
7.0775389485697098e-05

>  <CONVERGED>  (611) 
0

>  <ENERGY>  (611) 
-16.002051695311689

$$$$
596bd142-be4a-4ed5-a27f-f6249c73e23a
     RDKit          3D

 16 17  0  0  0  0  0  0  0  0999 V2000
   -0.2451   28.5281    4.7837 C   0  0  0  0  0  0  0  0  0  0  0  0
   -1.7060   28.5544    5.1947 C   0  0  0  0  0  0  0  0  0  0  0  0
   -2.5707   29.0726    4.0577 N   0  0  0  0  0  4  0  0  0  0  0  0
   -2.6322   28.1701    2.8446 C   0  0  0  0  0  0  0  0  0  0  0  0
   -3.1901   26.8023    3.1968 C   0  0  0  0  0  0  0  0  0  0  0  0
   -4.3693   26.8454    4.1513 C   0  0  0  0  0  0  0  0  0  0  0  0
   -4.7766   28.0634    4.7419 C   0  0  0  0  0  0  0  0  0  0  0  0
   -5.9139   28.1031    5.5596 C   0  0  0  0  0  0  0  0  0  0  0  0
   -6.6115   26.9341    5.8327 C   0  0  0  0  0  0  0  0  0  0  0  0
   -6.1590   25.7214    5.3165 C   0  0  0  0  0  0  0  0  0  0  0  0
   -5.0195   25.6442    4.4997 C   0  0  0  0  0  0  0  0  0  0  0  0
   -4.6045   24.4279    4.0774 N   0  0  0  0  0  2  0  0  0  0  0  0
   -3.4889   23.9592    4.6611 C   0  0  0  0  0  0  0  0  0  0  0  0
   -3.2825   22.5116    4.2807 C   0  0  0  0  0  0  0  0  0  0  0  0
   -2.6721   24.5357    5.3840 O   0  0  0  0  0  0  0  0  0  0  0  0
   -3.9946   29.3189    4.5098 C   0  0  0  0  0  0  0  0  0  0  0  0
  1  2  1  0
  2  3  1  0
  3  4  1  0
  4  5  1  0
  5  6  1  0
  6  7  2  0
  7  8  1  0
  8  9  2  0
  9 10  1  0
 10 11  2  0
 11 12  1  0
 12 13  1  0
 13 14  1  0
 13 15  2  0
  7 16  1  0
 16  3  1  0
 11  6  1  0
M  CHG  2   3   1  12  -1
M  END
>  <Energy>  (612) 
-15.918670732709135

>  <Energy_Delta>  (612) 
2.1797006806692636

>  <std_smi>  (612) 
CCN1CCc2c(cccc2NC(C)=O)C1

>  <enum_smi>  (612) 
CC[NH+]1CCc2c(cccc2[N-]C(C)=O)C1

>  <enum_code>  (612) 
M

>  <parent_uuid>  (612) 
159e9a67-9ddd-4f06-8bc8-f63c27ed1469

>  <o3da_score>  (612) 
71.477653808170857

>  <o3da_score_rel>  (612) 
0.28456292521884696

>  <o3da_align>  (612) 
0.53863031046998022

>  <RMSD>  (612) 
6.5620139176505321e-05

>  <CONVERGED>  (612) 
0

>  <ENERGY>  (612) 
-15.918670733999228

$$$$
596bd142-be4a-4ed5-a27f-f6249c73e23a
     RDKit          3D

 16 17  0  0  0  0  0  0  0  0999 V2000
   -7.2017   27.6713    4.9392 C   0  0  0  0  0  0  0  0  0  0  0  0
   -5.9770   28.4164    4.4416 C   0  0  0  0  0  0  0  0  0  0  0  0
   -4.7353   27.9230    5.1162 N   0  0  0  0  0  4  0  0  0  0  0  0
   -3.5469   28.8374    4.8595 C   0  0  0  0  0  0  0  0  0  0  0  0
   -2.4392   28.4684    5.8242 C   0  0  0  0  0  0  0  0  0  0  0  0
   -2.0365   27.0201    5.6600 C   0  0  0  0  0  0  0  0  0  0  0  0
   -3.0024   26.0734    5.2480 C   0  0  0  0  0  0  0  0  0  0  0  0
   -2.6705   24.7118    5.1966 C   0  0  0  0  0  0  0  0  0  0  0  0
   -1.3953   24.2930    5.5509 C   0  0  0  0  0  0  0  0  0  0  0  0
   -0.4368   25.2338    5.9210 C   0  0  0  0  0  0  0  0  0  0  0  0
   -0.7219   26.6085    5.9580 C   0  0  0  0  0  0  0  0  0  0  0  0
    0.2749   27.4616    6.2874 N   0  0  0  0  0  2  0  0  0  0  0  0
    0.7436   28.2243    5.2855 C   0  0  0  0  0  0  0  0  0  0  0  0
    2.0480   28.8661    5.6966 C   0  0  0  0  0  0  0  0  0  0  0  0
    0.2491   28.4676    4.1818 O   0  0  0  0  0  0  0  0  0  0  0  0
   -4.3539   26.5047    4.7593 C   0  0  0  0  0  0  0  0  0  0  0  0
  1  2  1  0
  2  3  1  0
  3  4  1  0
  4  5  1  0
  5  6  1  0
  6  7  2  0
  7  8  1  0
  8  9  2  0
  9 10  1  0
 10 11  2  0
 11 12  1  0
 12 13  1  0
 13 14  1  0
 13 15  2  0
  7 16  1  0
 16  3  1  0
 11  6  1  0
M  CHG  2   3   1  12  -1
M  END
>  <Energy>  (613) 
-15.858421437885408

>  <Energy_Delta>  (613) 
2.2399499754929906

>  <std_smi>  (613) 
CCN1CCc2c(cccc2NC(C)=O)C1

>  <enum_smi>  (613) 
CC[NH+]1CCc2c(cccc2[N-]C(C)=O)C1

>  <enum_code>  (613) 
M

>  <parent_uuid>  (613) 
159e9a67-9ddd-4f06-8bc8-f63c27ed1469

>  <o3da_score>  (613) 
67.497579841303732

>  <o3da_score_rel>  (613) 
0.26871767246840456

>  <o3da_align>  (613) 
0.19430381936499191

>  <RMSD>  (613) 
5.7895964655441465e-05

>  <CONVERGED>  (613) 
0

>  <ENERGY>  (613) 
-15.858421437953217

$$$$
596bd142-be4a-4ed5-a27f-f6249c73e23a
     RDKit          3D

 16 17  0  0  0  0  0  0  0  0999 V2000
   -2.8572   31.8132    3.2618 C   0  0  0  0  0  0  0  0  0  0  0  0
   -2.1008   30.5339    3.5679 C   0  0  0  0  0  0  0  0  0  0  0  0
   -3.0187   29.3516    3.5657 N   0  0  0  0  0  4  0  0  0  0  0  0
   -2.2531   28.0371    3.5774 C   0  0  0  0  0  0  0  0  0  0  0  0
   -3.2156   26.9172    3.2409 C   0  0  0  0  0  0  0  0  0  0  0  0
   -4.3604   26.8705    4.2277 C   0  0  0  0  0  0  0  0  0  0  0  0
   -4.8045   28.0686    4.8330 C   0  0  0  0  0  0  0  0  0  0  0  0
   -5.9331   28.0557    5.6655 C   0  0  0  0  0  0  0  0  0  0  0  0
   -6.6148   26.8684    5.8944 C   0  0  0  0  0  0  0  0  0  0  0  0
   -6.1515   25.6845    5.3247 C   0  0  0  0  0  0  0  0  0  0  0  0
   -5.0092   25.6512    4.5083 C   0  0  0  0  0  0  0  0  0  0  0  0
   -4.5996   24.4552    4.0269 N   0  0  0  0  0  2  0  0  0  0  0  0
   -3.4649   23.9709    4.5591 C   0  0  0  0  0  0  0  0  0  0  0  0
   -3.3084   22.5134    4.1937 C   0  0  0  0  0  0  0  0  0  0  0  0
   -2.5956   24.5454    5.2195 O   0  0  0  0  0  0  0  0  0  0  0  0
   -4.0292   29.3452    4.6897 C   0  0  0  0  0  0  0  0  0  0  0  0
  1  2  1  0
  2  3  1  0
  3  4  1  0
  4  5  1  0
  5  6  1  0
  6  7  2  0
  7  8  1  0
  8  9  2  0
  9 10  1  0
 10 11  2  0
 11 12  1  0
 12 13  1  0
 13 14  1  0
 13 15  2  0
  7 16  1  0
 16  3  1  0
 11  6  1  0
M  CHG  2   3   1  12  -1
M  END
>  <Energy>  (614) 
-15.858421437577892

>  <Energy_Delta>  (614) 
2.2399499758005064

>  <std_smi>  (614) 
CCN1CCc2c(cccc2NC(C)=O)C1

>  <enum_smi>  (614) 
CC[NH+]1CCc2c(cccc2[N-]C(C)=O)C1

>  <enum_code>  (614) 
M

>  <parent_uuid>  (614) 
159e9a67-9ddd-4f06-8bc8-f63c27ed1469

>  <o3da_score>  (614) 
78.935254432059239

>  <o3da_score_rel>  (614) 
0.31425271686118239

>  <o3da_align>  (614) 
0.54441614105521352

>  <RMSD>  (614) 
6.5893305473803331e-05

>  <CONVERGED>  (614) 
0

>  <ENERGY>  (614) 
-15.85842143794712

$$$$
596bd142-be4a-4ed5-a27f-f6249c73e23a
     RDKit          3D

 16 17  0  0  0  0  0  0  0  0999 V2000
   -7.2017   27.6713    4.9392 C   0  0  0  0  0  0  0  0  0  0  0  0
   -5.9770   28.4164    4.4416 C   0  0  0  0  0  0  0  0  0  0  0  0
   -4.7353   27.9230    5.1162 N   0  0  0  0  0  4  0  0  0  0  0  0
   -3.5469   28.8374    4.8595 C   0  0  0  0  0  0  0  0  0  0  0  0
   -2.4392   28.4684    5.8242 C   0  0  0  0  0  0  0  0  0  0  0  0
   -2.0365   27.0201    5.6600 C   0  0  0  0  0  0  0  0  0  0  0  0
   -3.0024   26.0734    5.2480 C   0  0  0  0  0  0  0  0  0  0  0  0
   -2.6705   24.7118    5.1966 C   0  0  0  0  0  0  0  0  0  0  0  0
   -1.3953   24.2930    5.5509 C   0  0  0  0  0  0  0  0  0  0  0  0
   -0.4368   25.2338    5.9211 C   0  0  0  0  0  0  0  0  0  0  0  0
   -0.7219   26.6085    5.9580 C   0  0  0  0  0  0  0  0  0  0  0  0
    0.2749   27.4616    6.2873 N   0  0  0  0  0  2  0  0  0  0  0  0
    0.7437   28.2243    5.2854 C   0  0  0  0  0  0  0  0  0  0  0  0
    2.0480   28.8661    5.6965 C   0  0  0  0  0  0  0  0  0  0  0  0
    0.2491   28.4676    4.1818 O   0  0  0  0  0  0  0  0  0  0  0  0
   -4.3539   26.5047    4.7593 C   0  0  0  0  0  0  0  0  0  0  0  0
  1  2  1  0
  2  3  1  0
  3  4  1  0
  4  5  1  0
  5  6  1  0
  6  7  2  0
  7  8  1  0
  8  9  2  0
  9 10  1  0
 10 11  2  0
 11 12  1  0
 12 13  1  0
 13 14  1  0
 13 15  2  0
  7 16  1  0
 16  3  1  0
 11  6  1  0
M  CHG  2   3   1  12  -1
M  END
>  <Energy>  (615) 
-15.858421437457149

>  <Energy_Delta>  (615) 
2.2399499759212489

>  <std_smi>  (615) 
CCN1CCc2c(cccc2NC(C)=O)C1

>  <enum_smi>  (615) 
CC[NH+]1CCc2c(cccc2[N-]C(C)=O)C1

>  <enum_code>  (615) 
M

>  <parent_uuid>  (615) 
159e9a67-9ddd-4f06-8bc8-f63c27ed1469

>  <o3da_score>  (615) 
67.497449074712392

>  <o3da_score_rel>  (615) 
0.26871715186760459

>  <o3da_align>  (615) 
0.19431488320797471

>  <RMSD>  (615) 
6.3177774458809618e-05

>  <CONVERGED>  (615) 
0

>  <ENERGY>  (615) 
-15.858421437963163

$$$$
596bd142-be4a-4ed5-a27f-f6249c73e23a
     RDKit          3D

 16 17  0  0  0  0  0  0  0  0999 V2000
   -2.8573   31.8132    3.2617 C   0  0  0  0  0  0  0  0  0  0  0  0
   -2.1008   30.5339    3.5679 C   0  0  0  0  0  0  0  0  0  0  0  0
   -3.0188   29.3516    3.5656 N   0  0  0  0  0  4  0  0  0  0  0  0
   -2.2531   28.0372    3.5774 C   0  0  0  0  0  0  0  0  0  0  0  0
   -3.2156   26.9172    3.2409 C   0  0  0  0  0  0  0  0  0  0  0  0
   -4.3604   26.8705    4.2277 C   0  0  0  0  0  0  0  0  0  0  0  0
   -4.8045   28.0686    4.8330 C   0  0  0  0  0  0  0  0  0  0  0  0
   -5.9331   28.0557    5.6655 C   0  0  0  0  0  0  0  0  0  0  0  0
   -6.6148   26.8684    5.8944 C   0  0  0  0  0  0  0  0  0  0  0  0
   -6.1515   25.6845    5.3248 C   0  0  0  0  0  0  0  0  0  0  0  0
   -5.0092   25.6512    4.5083 C   0  0  0  0  0  0  0  0  0  0  0  0
   -4.5995   24.4552    4.0269 N   0  0  0  0  0  2  0  0  0  0  0  0
   -3.4649   23.9709    4.5591 C   0  0  0  0  0  0  0  0  0  0  0  0
   -3.3084   22.5134    4.1936 C   0  0  0  0  0  0  0  0  0  0  0  0
   -2.5956   24.5454    5.2195 O   0  0  0  0  0  0  0  0  0  0  0  0
   -4.0292   29.3453    4.6896 C   0  0  0  0  0  0  0  0  0  0  0  0
  1  2  1  0
  2  3  1  0
  3  4  1  0
  4  5  1  0
  5  6  1  0
  6  7  2  0
  7  8  1  0
  8  9  2  0
  9 10  1  0
 10 11  2  0
 11 12  1  0
 12 13  1  0
 13 14  1  0
 13 15  2  0
  7 16  1  0
 16  3  1  0
 11  6  1  0
M  CHG  2   3   1  12  -1
M  END
>  <Energy>  (616) 
-15.85842143686177

>  <Energy_Delta>  (616) 
2.2399499765166286

>  <std_smi>  (616) 
CCN1CCc2c(cccc2NC(C)=O)C1

>  <enum_smi>  (616) 
CC[NH+]1CCc2c(cccc2[N-]C(C)=O)C1

>  <enum_code>  (616) 
M

>  <parent_uuid>  (616) 
159e9a67-9ddd-4f06-8bc8-f63c27ed1469

>  <o3da_score>  (616) 
78.934477343373274

>  <o3da_score_rel>  (616) 
0.31424962315821581

>  <o3da_align>  (616) 
0.54443281784835695

>  <RMSD>  (616) 
7.0742452576268069e-05

>  <CONVERGED>  (616) 
0

>  <ENERGY>  (616) 
-15.858421437884727

$$$$
596bd142-be4a-4ed5-a27f-f6249c73e23a
     RDKit          3D

 16 17  0  0  0  0  0  0  0  0999 V2000
   -1.5608   29.1604    2.0123 C   0  0  0  0  0  0  0  0  0  0  0  0
   -2.5412   28.1795    2.6338 C   0  0  0  0  0  0  0  0  0  0  0  0
   -3.0793   28.7459    3.9418 N   0  0  0  0  0  4  0  0  0  0  0  0
   -2.0647   28.5386    5.0797 C   0  0  0  0  0  0  0  0  0  0  0  0
   -2.4573   27.4278    6.0498 C   0  0  0  0  0  0  0  0  0  0  0  0
   -3.1669   26.2999    5.3411 C   0  0  0  0  0  0  0  0  0  0  0  0
   -4.2848   26.6672    4.5625 C   0  0  0  0  0  0  0  0  0  0  0  0
   -5.1027   25.6967    3.9873 C   0  0  0  0  0  0  0  0  0  0  0  0
   -4.7616   24.3583    4.1384 C   0  0  0  0  0  0  0  0  0  0  0  0
   -3.5830   24.0069    4.8053 C   0  0  0  0  0  0  0  0  0  0  0  0
   -2.7360   24.9695    5.3789 C   0  0  0  0  0  0  0  0  0  0  0  0
   -1.5614   24.5707    5.9157 N   0  0  0  0  0  2  0  0  0  0  0  0
   -0.4484   25.0616    5.3442 C   0  0  0  0  0  0  0  0  0  0  0  0
    0.7666   24.3680    5.9151 C   0  0  0  0  0  0  0  0  0  0  0  0
   -0.3170   25.9530    4.4999 O   0  0  0  0  0  0  0  0  0  0  0  0
   -4.4329   28.1305    4.2873 C   0  0  0  0  0  0  0  0  0  0  0  0
  1  2  1  0
  2  3  1  0
  3  4  1  0
  4  5  1  0
  5  6  1  0
  6  7  2  0
  7  8  1  0
  8  9  2  0
  9 10  1  0
 10 11  2  0
 11 12  1  0
 12 13  1  0
 13 14  1  0
 13 15  2  0
  7 16  1  0
 16  3  1  0
 11  6  1  0
M  CHG  2   3   1  12  -1
M  END
>  <Energy>  (617) 
-15.85288356668373

>  <Energy_Delta>  (617) 
2.2454878466946688

>  <std_smi>  (617) 
CCN1CCc2c(cccc2NC(C)=O)C1

>  <enum_smi>  (617) 
CC[NH+]1CCc2c(cccc2[N-]C(C)=O)C1

>  <enum_code>  (617) 
M

>  <parent_uuid>  (617) 
159e9a67-9ddd-4f06-8bc8-f63c27ed1469

>  <o3da_score>  (617) 
76.189693935607252

>  <o3da_score_rel>  (617) 
0.30332224160618215

>  <o3da_align>  (617) 
0.48310085435410338

>  <RMSD>  (617) 
6.824021219131073e-05

>  <CONVERGED>  (617) 
0

>  <ENERGY>  (617) 
-15.852883567844531

$$$$
596bd142-be4a-4ed5-a27f-f6249c73e23a
     RDKit          3D

 16 17  0  0  0  0  0  0  0  0999 V2000
   -6.6235   29.5176    5.2778 C   0  0  0  0  0  0  0  0  0  0  0  0
   -6.0061   28.3721    4.4966 C   0  0  0  0  0  0  0  0  0  0  0  0
   -4.7222   27.9327    5.1258 N   0  0  0  0  0  4  0  0  0  0  0  0
   -3.5467   28.8562    4.8598 C   0  0  0  0  0  0  0  0  0  0  0  0
   -2.4161   28.4799    5.7970 C   0  0  0  0  0  0  0  0  0  0  0  0
   -2.0330   27.0226    5.6537 C   0  0  0  0  0  0  0  0  0  0  0  0
   -3.0004   26.0832    5.2274 C   0  0  0  0  0  0  0  0  0  0  0  0
   -2.6824   24.7181    5.1864 C   0  0  0  0  0  0  0  0  0  0  0  0
   -1.4205   24.2868    5.5718 C   0  0  0  0  0  0  0  0  0  0  0  0
   -0.4622   25.2178    5.9662 C   0  0  0  0  0  0  0  0  0  0  0  0
   -0.7330   26.5957    5.9930 C   0  0  0  0  0  0  0  0  0  0  0  0
    0.2601   27.4385    6.3576 N   0  0  0  0  0  2  0  0  0  0  0  0
    0.7883   28.1776    5.3681 C   0  0  0  0  0  0  0  0  0  0  0  0
    2.0788   28.8105    5.8332 C   0  0  0  0  0  0  0  0  0  0  0  0
    0.3531   28.4070    4.2371 O   0  0  0  0  0  0  0  0  0  0  0  0
   -4.3375   26.5294    4.7174 C   0  0  0  0  0  0  0  0  0  0  0  0
  1  2  1  0
  2  3  1  0
  3  4  1  0
  4  5  1  0
  5  6  1  0
  6  7  2  0
  7  8  1  0
  8  9  2  0
  9 10  1  0
 10 11  2  0
 11 12  1  0
 12 13  1  0
 13 14  1  0
 13 15  2  0
  7 16  1  0
 16  3  1  0
 11  6  1  0
M  CHG  2   3   1  12  -1
M  END
>  <Energy>  (618) 
-15.752120474490779

>  <Energy_Delta>  (618) 
2.3462509388876196

>  <std_smi>  (618) 
CCN1CCc2c(cccc2NC(C)=O)C1

>  <enum_smi>  (618) 
CC[NH+]1CCc2c(cccc2[N-]C(C)=O)C1

>  <enum_code>  (618) 
M

>  <parent_uuid>  (618) 
159e9a67-9ddd-4f06-8bc8-f63c27ed1469

>  <o3da_score>  (618) 
67.772599316207348

>  <o3da_score_rel>  (618) 
0.26981256495719214

>  <o3da_align>  (618) 
0.17198198361332065

>  <RMSD>  (618) 
6.6622530110521425e-05

>  <CONVERGED>  (618) 
0

>  <ENERGY>  (618) 
-15.752120474958431

$$$$
596bd142-be4a-4ed5-a27f-f6249c73e23a
     RDKit          3D

 16 17  0  0  0  0  0  0  0  0999 V2000
   -1.4153   30.8405    2.4753 C   0  0  0  0  0  0  0  0  0  0  0  0
   -2.1250   30.5942    3.7941 C   0  0  0  0  0  0  0  0  0  0  0  0
   -2.9499   29.3483    3.7276 N   0  0  0  0  0  4  0  0  0  0  0  0
   -2.1491   28.0618    3.8239 C   0  0  0  0  0  0  0  0  0  0  0  0
   -3.0452   26.9052    3.4268 C   0  0  0  0  0  0  0  0  0  0  0  0
   -4.2997   26.8542    4.2722 C   0  0  0  0  0  0  0  0  0  0  0  0
   -4.8145   28.0460    4.8332 C   0  0  0  0  0  0  0  0  0  0  0  0
   -6.0285   28.0238    5.5346 C   0  0  0  0  0  0  0  0  0  0  0  0
   -6.7300   26.8338    5.6721 C   0  0  0  0  0  0  0  0  0  0  0  0
   -6.2065   25.6574    5.1405 C   0  0  0  0  0  0  0  0  0  0  0  0
   -4.9800   25.6334    4.4565 C   0  0  0  0  0  0  0  0  0  0  0  0
   -4.5239   24.4457    3.9971 N   0  0  0  0  0  2  0  0  0  0  0  0
   -3.4735   23.9311    4.6577 C   0  0  0  0  0  0  0  0  0  0  0  0
   -3.2822   22.4838    4.2692 C   0  0  0  0  0  0  0  0  0  0  0  0
   -2.6947   24.4740    5.4451 O   0  0  0  0  0  0  0  0  0  0  0  0
   -4.0334   29.3242    4.7809 C   0  0  0  0  0  0  0  0  0  0  0  0
  1  2  1  0
  2  3  1  0
  3  4  1  0
  4  5  1  0
  5  6  1  0
  6  7  2  0
  7  8  1  0
  8  9  2  0
  9 10  1  0
 10 11  2  0
 11 12  1  0
 12 13  1  0
 13 14  1  0
 13 15  2  0
  7 16  1  0
 16  3  1  0
 11  6  1  0
M  CHG  2   3   1  12  -1
M  END
>  <Energy>  (619) 
-15.752120474325999

>  <Energy_Delta>  (619) 
2.3462509390523998

>  <std_smi>  (619) 
CCN1CCc2c(cccc2NC(C)=O)C1

>  <enum_smi>  (619) 
CC[NH+]1CCc2c(cccc2[N-]C(C)=O)C1

>  <enum_code>  (619) 
M

>  <parent_uuid>  (619) 
159e9a67-9ddd-4f06-8bc8-f63c27ed1469

>  <o3da_score>  (619) 
81.23359166453892

>  <o3da_score_rel>  (619) 
0.32340273132261177

>  <o3da_align>  (619) 
0.4492087359345201

>  <RMSD>  (619) 
6.1440796272072036e-05

>  <CONVERGED>  (619) 
0

>  <ENERGY>  (619) 
-15.752120474954385

$$$$
596bd142-be4a-4ed5-a27f-f6249c73e23a
     RDKit          3D

 16 17  0  0  0  0  0  0  0  0999 V2000
   -2.7541   21.9671    3.5719 C   0  0  0  0  0  0  0  0  0  0  0  0
   -3.1391   22.4556    4.9561 C   0  0  0  0  0  0  0  0  0  0  0  0
   -3.5549   23.8891    4.9802 N   0  0  0  0  0  4  0  0  0  0  0  0
   -2.4951   24.8801    4.5465 C   0  0  0  0  0  0  0  0  0  0  0  0
   -2.8793   26.2533    5.0650 C   0  0  0  0  0  0  0  0  0  0  0  0
   -4.2880   26.6437    4.6631 C   0  0  0  0  0  0  0  0  0  0  0  0
   -5.2462   25.6421    4.3735 C   0  0  0  0  0  0  0  0  0  0  0  0
   -6.5715   25.9994    4.0872 C   0  0  0  0  0  0  0  0  0  0  0  0
   -6.9492   27.3350    4.1014 C   0  0  0  0  0  0  0  0  0  0  0  0
   -6.0010   28.3193    4.3714 C   0  0  0  0  0  0  0  0  0  0  0  0
   -4.6576   28.0040    4.6341 C   0  0  0  0  0  0  0  0  0  0  0  0
   -3.7930   29.0177    4.8678 N   0  0  0  0  0  2  0  0  0  0  0  0
   -2.9261   29.2823    3.8766 C   0  0  0  0  0  0  0  0  0  0  0  0
   -2.2601   30.6162    4.1199 C   0  0  0  0  0  0  0  0  0  0  0  0
   -2.6140   28.5980    2.8994 O   0  0  0  0  0  0  0  0  0  0  0  0
   -4.8483   24.1992    4.2737 C   0  0  0  0  0  0  0  0  0  0  0  0
  1  2  1  0
  2  3  1  0
  3  4  1  0
  4  5  1  0
  5  6  1  0
  6  7  2  0
  7  8  1  0
  8  9  2  0
  9 10  1  0
 10 11  2  0
 11 12  1  0
 12 13  1  0
 13 14  1  0
 13 15  2  0
  7 16  1  0
 16  3  1  0
 11  6  1  0
M  CHG  2   3   1  12  -1
M  END
>  <Energy>  (620) 
-14.893744469960936

>  <Energy_Delta>  (620) 
3.2046269434174626

>  <std_smi>  (620) 
CCN1CCc2c(cccc2NC(C)=O)C1

>  <enum_smi>  (620) 
CC[NH+]1CCc2c(cccc2[N-]C(C)=O)C1

>  <enum_code>  (620) 
M

>  <parent_uuid>  (620) 
159e9a67-9ddd-4f06-8bc8-f63c27ed1469

>  <o3da_score>  (620) 
92.88799803114145

>  <o3da_score_rel>  (620) 
0.36980061640527045

>  <o3da_align>  (620) 
0.32874659601261397

>  <RMSD>  (620) 
7.1230917216583156e-05

>  <CONVERGED>  (620) 
0

>  <ENERGY>  (620) 
-14.893744469998357

$$$$
596bd142-be4a-4ed5-a27f-f6249c73e23a
     RDKit          3D

 16 17  0  0  0  0  0  0  0  0999 V2000
   -6.0821   28.6291    3.1190 C   0  0  0  0  0  0  0  0  0  0  0  0
   -6.0438   28.3859    4.6164 C   0  0  0  0  0  0  0  0  0  0  0  0
   -4.7142   27.9124    5.1022 N   0  0  0  0  0  4  0  0  0  0  0  0
   -3.5622   28.8695    4.8782 C   0  0  0  0  0  0  0  0  0  0  0  0
   -2.4301   28.4873    5.8132 C   0  0  0  0  0  0  0  0  0  0  0  0
   -2.0495   27.0254    5.6842 C   0  0  0  0  0  0  0  0  0  0  0  0
   -2.9955   26.0856    5.2076 C   0  0  0  0  0  0  0  0  0  0  0  0
   -2.6733   24.7215    5.1705 C   0  0  0  0  0  0  0  0  0  0  0  0
   -1.4313   24.2889    5.6144 C   0  0  0  0  0  0  0  0  0  0  0  0
   -0.4970   25.2173    6.0682 C   0  0  0  0  0  0  0  0  0  0  0  0
   -0.7708   26.5948    6.0935 C   0  0  0  0  0  0  0  0  0  0  0  0
    0.1957   27.4346    6.5296 N   0  0  0  0  0  2  0  0  0  0  0  0
    0.8000   28.1681    5.5805 C   0  0  0  0  0  0  0  0  0  0  0  0
    2.0542   28.7977    6.1394 C   0  0  0  0  0  0  0  0  0  0  0  0
    0.4521   28.3949    4.4193 O   0  0  0  0  0  0  0  0  0  0  0  0
   -4.3137   26.5332    4.6487 C   0  0  0  0  0  0  0  0  0  0  0  0
  1  2  1  0
  2  3  1  0
  3  4  1  0
  4  5  1  0
  5  6  1  0
  6  7  2  0
  7  8  1  0
  8  9  2  0
  9 10  1  0
 10 11  2  0
 11 12  1  0
 12 13  1  0
 13 14  1  0
 13 15  2  0
  7 16  1  0
 16  3  1  0
 11  6  1  0
M  CHG  2   3   1  12  -1
M  END
>  <Energy>  (621) 
-14.89374446939124

>  <Energy_Delta>  (621) 
3.204626943987158

>  <std_smi>  (621) 
CCN1CCc2c(cccc2NC(C)=O)C1

>  <enum_smi>  (621) 
CC[NH+]1CCc2c(cccc2[N-]C(C)=O)C1

>  <enum_code>  (621) 
M

>  <parent_uuid>  (621) 
159e9a67-9ddd-4f06-8bc8-f63c27ed1469

>  <o3da_score>  (621) 
68.078837704401522

>  <o3da_score_rel>  (621) 
0.27103174447576883

>  <o3da_align>  (621) 
0.15029495251882247

>  <RMSD>  (621) 
6.8159364262411639e-05

>  <CONVERGED>  (621) 
0

>  <ENERGY>  (621) 
-14.893744469997912

$$$$
596bd142-be4a-4ed5-a27f-f6249c73e23a
     RDKit          3D

 16 17  0  0  0  0  0  0  0  0999 V2000
   -7.0421   27.3231    4.7183 C   0  0  0  0  0  0  0  0  0  0  0  0
   -5.9609   28.3516    4.4416 C   0  0  0  0  0  0  0  0  0  0  0  0
   -4.6502   27.9362    5.0632 N   0  0  0  0  0  4  0  0  0  0  0  0
   -4.0294   26.6713    4.5017 C   0  0  0  0  0  0  0  0  0  0  0  0
   -3.7032   26.8216    3.0277 C   0  0  0  0  0  0  0  0  0  0  0  0
   -2.9498   28.0999    2.7165 C   0  0  0  0  0  0  0  0  0  0  0  0
   -2.9825   29.1847    3.6244 C   0  0  0  0  0  0  0  0  0  0  0  0
   -2.3463   30.3915    3.3009 C   0  0  0  0  0  0  0  0  0  0  0  0
   -1.7004   30.5306    2.0801 C   0  0  0  0  0  0  0  0  0  0  0  0
   -1.6647   29.4594    1.1901 C   0  0  0  0  0  0  0  0  0  0  0  0
   -2.2643   28.2253    1.4904 C   0  0  0  0  0  0  0  0  0  0  0  0
   -2.1814   27.2292    0.5789 N   0  0  0  0  0  2  0  0  0  0  0  0
   -1.3211   26.2414    0.8742 C   0  0  0  0  0  0  0  0  0  0  0  0
   -1.0935   25.3781   -0.3445 C   0  0  0  0  0  0  0  0  0  0  0  0
   -0.7758   25.9651    1.9449 O   0  0  0  0  0  0  0  0  0  0  0  0
   -3.6149   29.0362    4.9742 C   0  0  0  0  0  0  0  0  0  0  0  0
  1  2  1  0
  2  3  1  0
  3  4  1  0
  4  5  1  0
  5  6  1  0
  6  7  2  0
  7  8  1  0
  8  9  2  0
  9 10  1  0
 10 11  2  0
 11 12  1  0
 12 13  1  0
 13 14  1  0
 13 15  2  0
  7 16  1  0
 16  3  1  0
 11  6  1  0
M  CHG  2   3   1  12  -1
M  END
>  <Energy>  (622) 
-13.569520244424725

>  <Energy_Delta>  (622) 
4.5288511689536737

>  <std_smi>  (622) 
CCN1CCc2c(cccc2NC(C)=O)C1

>  <enum_smi>  (622) 
CC[NH+]1CCc2c(cccc2[N-]C(C)=O)C1

>  <enum_code>  (622) 
M

>  <parent_uuid>  (622) 
159e9a67-9ddd-4f06-8bc8-f63c27ed1469

>  <o3da_score>  (622) 
65.253163555114128

>  <o3da_score_rel>  (622) 
0.25978232512864724

>  <o3da_align>  (622) 
0.48906156060262485

>  <RMSD>  (622) 
6.3099448735202412e-05

>  <CONVERGED>  (622) 
0

>  <ENERGY>  (622) 
-13.569520244978026

$$$$
596bd142-be4a-4ed5-a27f-f6249c73e23a
     RDKit          3D

 16 17  0  0  0  0  0  0  0  0999 V2000
   -2.2744   30.7440    3.3346 C   0  0  0  0  0  0  0  0  0  0  0  0
   -3.4111   30.1440    4.1417 C   0  0  0  0  0  0  0  0  0  0  0  0
   -3.1976   28.6802    4.3522 N   0  0  0  0  0  4  0  0  0  0  0  0
   -1.9721   28.3323    5.1864 C   0  0  0  0  0  0  0  0  0  0  0  0
   -2.0804   27.0140    5.9486 C   0  0  0  0  0  0  0  0  0  0  0  0
   -2.9936   26.0053    5.2917 C   0  0  0  0  0  0  0  0  0  0  0  0
   -4.2093   26.4927    4.7648 C   0  0  0  0  0  0  0  0  0  0  0  0
   -5.1350   25.6246    4.1838 C   0  0  0  0  0  0  0  0  0  0  0  0
   -4.8415   24.2693    4.1151 C   0  0  0  0  0  0  0  0  0  0  0  0
   -3.6401   23.7875    4.6405 C   0  0  0  0  0  0  0  0  0  0  0  0
   -2.7045   24.6313    5.2632 C   0  0  0  0  0  0  0  0  0  0  0  0
   -1.5706   24.0805    5.7522 N   0  0  0  0  0  2  0  0  0  0  0  0
   -1.3905   24.1396    7.0805 C   0  0  0  0  0  0  0  0  0  0  0  0
   -0.2196   23.2699    7.4754 C   0  0  0  0  0  0  0  0  0  0  0  0
   -1.9986   24.7873    7.9344 O   0  0  0  0  0  0  0  0  0  0  0  0
   -4.4363   27.9670    4.8429 C   0  0  0  0  0  0  0  0  0  0  0  0
  1  2  1  0
  2  3  1  0
  3  4  1  0
  4  5  1  0
  5  6  1  0
  6  7  2  0
  7  8  1  0
  8  9  2  0
  9 10  1  0
 10 11  2  0
 11 12  1  0
 12 13  1  0
 13 14  1  0
 13 15  2  0
  7 16  1  0
 16  3  1  0
 11  6  1  0
M  CHG  2   3   1  12  -1
M  END
>  <Energy>  (623) 
-10.931045082950755

>  <Energy_Delta>  (623) 
7.1673263304276436

>  <std_smi>  (623) 
CCN1CCc2c(cccc2NC(C)=O)C1

>  <enum_smi>  (623) 
CC[NH+]1CCc2c(cccc2[N-]C(C)=O)C1

>  <enum_code>  (623) 
M

>  <parent_uuid>  (623) 
159e9a67-9ddd-4f06-8bc8-f63c27ed1469

>  <o3da_score>  (623) 
70.079887193774908

>  <o3da_score_rel>  (623) 
0.27899821323720819

>  <o3da_align>  (623) 
0.40374175611438951

>  <RMSD>  (623) 
6.5372791869349346e-05

>  <CONVERGED>  (623) 
0

>  <ENERGY>  (623) 
-10.931045083172252

$$$$
596bd142-be4a-4ed5-a27f-f6249c73e23a
     RDKit          3D

 16 17  0  0  0  0  0  0  0  0999 V2000
   -6.4807   29.3710    5.7260 C   0  0  0  0  0  0  0  0  0  0  0  0
   -6.0251   28.3089    4.7423 C   0  0  0  0  0  0  0  0  0  0  0  0
   -4.6336   27.8608    5.0516 N   0  0  0  0  0  4  0  0  0  0  0  0
   -3.5713   28.9408    4.8969 C   0  0  0  0  0  0  0  0  0  0  0  0
   -2.1798   28.4138    4.5560 C   0  0  0  0  0  0  0  0  0  0  0  0
   -1.9208   27.0122    5.0577 C   0  0  0  0  0  0  0  0  0  0  0  0
   -2.9676   26.0768    4.9077 C   0  0  0  0  0  0  0  0  0  0  0  0
   -2.7991   24.7477    5.2986 C   0  0  0  0  0  0  0  0  0  0  0  0
   -1.5890   24.3534    5.8536 C   0  0  0  0  0  0  0  0  0  0  0  0
   -0.5525   25.2788    5.9977 C   0  0  0  0  0  0  0  0  0  0  0  0
   -0.6796   26.6150    5.5810 C   0  0  0  0  0  0  0  0  0  0  0  0
    0.3765   27.4422    5.7500 N   0  0  0  0  0  2  0  0  0  0  0  0
    0.9477   27.9326    4.6393 C   0  0  0  0  0  0  0  0  0  0  0  0
    2.2448   28.6215    4.9947 C   0  0  0  0  0  0  0  0  0  0  0  0
    0.5553   27.9121    3.4714 O   0  0  0  0  0  0  0  0  0  0  0  0
   -4.2510   26.5854    4.3372 C   0  0  0  0  0  0  0  0  0  0  0  0
  1  2  1  0
  2  3  1  0
  3  4  1  0
  4  5  1  0
  5  6  1  0
  6  7  2  0
  7  8  1  0
  8  9  2  0
  9 10  1  0
 10 11  2  0
 11 12  1  0
 12 13  1  0
 13 14  1  0
 13 15  2  0
  7 16  1  0
 16  3  1  0
 11  6  1  0
M  CHG  2   3   1  12  -1
M  END
>  <Energy>  (624) 
-10.931045082365209

>  <Energy_Delta>  (624) 
7.1673263310131894

>  <std_smi>  (624) 
CCN1CCc2c(cccc2NC(C)=O)C1

>  <enum_smi>  (624) 
CC[NH+]1CCc2c(cccc2[N-]C(C)=O)C1

>  <enum_code>  (624) 
M

>  <parent_uuid>  (624) 
159e9a67-9ddd-4f06-8bc8-f63c27ed1469

>  <o3da_score>  (624) 
67.006510642440261

>  <o3da_score_rel>  (624) 
0.26676265463739834

>  <o3da_align>  (624) 
0.25167032611158047

>  <RMSD>  (624) 
6.9784592716753345e-05

>  <CONVERGED>  (624) 
0

>  <ENERGY>  (624) 
-10.931045083139985

$$$$
596bd142-be4a-4ed5-a27f-f6249c73e23a
     RDKit          3D

 16 17  0  0  0  0  0  0  0  0999 V2000
   -6.7349   28.9742    6.5587 C   0  0  0  0  0  0  0  0  0  0  0  0
   -5.2940   28.4961    6.5204 C   0  0  0  0  0  0  0  0  0  0  0  0
   -4.7224   28.6650    5.1306 N   0  0  0  0  0  4  0  0  0  0  0  0
   -3.2089   28.6947    5.1283 C   0  0  0  0  0  0  0  0  0  0  0  0
   -2.6219   27.3804    5.6131 C   0  0  0  0  0  0  0  0  0  0  0  0
   -3.3096   26.1448    5.0633 C   0  0  0  0  0  0  0  0  0  0  0  0
   -4.5428   26.2612    4.3806 C   0  0  0  0  0  0  0  0  0  0  0  0
   -5.1910   25.1152    3.9002 C   0  0  0  0  0  0  0  0  0  0  0  0
   -4.6514   23.8594    4.1433 C   0  0  0  0  0  0  0  0  0  0  0  0
   -3.4619   23.7430    4.8594 C   0  0  0  0  0  0  0  0  0  0  0  0
   -2.7582   24.8692    5.3175 C   0  0  0  0  0  0  0  0  0  0  0  0
   -1.6380   24.6813    6.0580 N   0  0  0  0  0  2  0  0  0  0  0  0
   -0.4869   25.0055    5.4546 C   0  0  0  0  0  0  0  0  0  0  0  0
   -0.1228   24.0929    4.3023 C   0  0  0  0  0  0  0  0  0  0  0  0
    0.2661   25.9209    5.7890 O   0  0  0  0  0  0  0  0  0  0  0  0
   -5.1635   27.6050    4.1473 C   0  0  0  0  0  0  0  0  0  0  0  0
  1  2  1  0
  2  3  1  0
  3  4  1  0
  4  5  1  0
  5  6  1  0
  6  7  2  0
  7  8  1  0
  8  9  2  0
  9 10  1  0
 10 11  2  0
 11 12  1  0
 12 13  1  0
 13 14  1  0
 13 15  2  0
  7 16  1  0
 16  3  1  0
 11  6  1  0
M  CHG  2   3   1  12  -1
M  END
>  <Energy>  (625) 
-9.6358285621970623

>  <Energy_Delta>  (625) 
8.4625428511813361

>  <std_smi>  (625) 
CCN1CCc2c(cccc2NC(C)=O)C1

>  <enum_smi>  (625) 
CC[NH+]1CCc2c(cccc2[N-]C(C)=O)C1

>  <enum_code>  (625) 
M

>  <parent_uuid>  (625) 
159e9a67-9ddd-4f06-8bc8-f63c27ed1469

>  <o3da_score>  (625) 
69.513537768650977

>  <o3da_score_rel>  (625) 
0.27674349388755248

>  <o3da_align>  (625) 
0.53884206600456019

>  <RMSD>  (625) 
6.6608877253139363e-05

>  <CONVERGED>  (625) 
0

>  <ENERGY>  (625) 
-9.6358285629415459

$$$$
53c6c8e5-481a-4c89-81f5-572ca7e96310
     RDKit          3D

 16 17  0  0  0  0  0  0  0  0999 V2000
   -2.0548   30.3732    3.7961 C   0  0  0  0  0  0  0  0  0  0  0  0
   -3.0708   29.2362    3.7497 C   0  0  0  0  0  0  0  0  0  0  0  0
   -3.7363   29.0135    5.0428 N   0  0  0  0  0  0  0  0  0  0  0  0
   -2.8252   28.5442    6.1045 C   0  0  0  0  0  0  0  0  0  0  0  0
   -2.1503   27.1937    5.8300 C   0  0  0  0  0  0  0  0  0  0  0  0
   -3.0946   26.1507    5.2595 C   0  0  0  0  0  0  0  0  0  0  0  0
   -4.3583   26.5710    4.7764 C   0  0  0  0  0  0  0  0  0  0  0  0
   -5.2362   25.6298    4.2267 C   0  0  0  0  0  0  0  0  0  0  0  0
   -4.8543   24.2985    4.1275 C   0  0  0  0  0  0  0  0  0  0  0  0
   -3.5979   23.8948    4.5842 C   0  0  0  0  0  0  0  0  0  0  0  0
   -2.6868   24.7927    5.1708 C   0  0  0  0  0  0  0  0  0  0  0  0
   -1.4401   24.4364    5.5758 N   0  0  0  0  0  2  0  0  0  0  0  0
   -1.2180   23.2241    6.0981 C   0  0  0  0  0  0  0  0  0  0  0  0
    0.2721   22.9898    6.2013 C   0  0  0  0  0  0  0  0  0  0  0  0
   -2.0019   22.3643    6.5035 O   0  0  0  0  0  0  0  0  0  0  0  0
   -4.8129   28.0084    4.9088 C   0  0  0  0  0  0  0  0  0  0  0  0
  1  2  1  0
  2  3  1  0
  3  4  1  0
  4  5  1  0
  5  6  1  0
  6  7  2  0
  7  8  1  0
  8  9  2  0
  9 10  1  0
 10 11  2  0
 11 12  1  0
 12 13  1  0
 13 14  1  0
 13 15  2  0
  7 16  1  0
 16  3  1  0
 11  6  1  0
M  CHG  1  12  -1
M  END
>  <Energy>  (626) 
52.075576917337131

>  <Energy_Delta>  (626) 
0

>  <std_smi>  (626) 
CCN1CCc2c(cccc2NC(C)=O)C1

>  <enum_smi>  (626) 
CCN1CCc2c(cccc2[N-]C(C)=O)C1

>  <enum_code>  (626) 
M

>  <parent_uuid>  (626) 
159e9a67-9ddd-4f06-8bc8-f63c27ed1469

>  <o3da_score>  (626) 
73.656893939086402

>  <o3da_score_rel>  (626) 
0.2932387968146315

>  <o3da_align>  (626) 
0.21515372227311444

>  <RMSD>  (626) 
6.5105299765938655e-05

>  <CONVERGED>  (626) 
0

>  <ENERGY>  (626) 
52.075576876723431

$$$$
53c6c8e5-481a-4c89-81f5-572ca7e96310
     RDKit          3D

 16 17  0  0  0  0  0  0  0  0999 V2000
   -1.1813   28.8118    2.0558 C   0  0  0  0  0  0  0  0  0  0  0  0
   -2.5320   28.7186    2.7593 C   0  0  0  0  0  0  0  0  0  0  0  0
   -2.3897   28.6695    4.2232 N   0  0  0  0  0  0  0  0  0  0  0  0
   -3.6736   28.9548    4.8947 C   0  0  0  0  0  0  0  0  0  0  0  0
   -4.7929   27.9434    4.6120 C   0  0  0  0  0  0  0  0  0  0  0  0
   -4.3300   26.4987    4.6572 C   0  0  0  0  0  0  0  0  0  0  0  0
   -2.9391   26.2320    4.6548 C   0  0  0  0  0  0  0  0  0  0  0  0
   -2.4895   24.9067    4.6748 C   0  0  0  0  0  0  0  0  0  0  0  0
   -3.4045   23.8622    4.6738 C   0  0  0  0  0  0  0  0  0  0  0  0
   -4.7744   24.1321    4.6546 C   0  0  0  0  0  0  0  0  0  0  0  0
   -5.2817   25.4443    4.6264 C   0  0  0  0  0  0  0  0  0  0  0  0
   -6.6087   25.7341    4.6374 N   0  0  0  0  0  2  0  0  0  0  0  0
   -7.4805   24.9408    4.0031 C   0  0  0  0  0  0  0  0  0  0  0  0
   -8.8874   25.3252    4.4011 C   0  0  0  0  0  0  0  0  0  0  0  0
   -7.3016   24.0404    3.1812 O   0  0  0  0  0  0  0  0  0  0  0  0
   -1.9225   27.3523    4.7035 C   0  0  0  0  0  0  0  0  0  0  0  0
  1  2  1  0
  2  3  1  0
  3  4  1  0
  4  5  1  0
  5  6  1  0
  6  7  2  0
  7  8  1  0
  8  9  2  0
  9 10  1  0
 10 11  2  0
 11 12  1  0
 12 13  1  0
 13 14  1  0
 13 15  2  0
  7 16  1  0
 16  3  1  0
 11  6  1  0
M  CHG  1  12  -1
M  END
>  <Energy>  (627) 
52.204754362681612

>  <Energy_Delta>  (627) 
0.12917744534448161

>  <std_smi>  (627) 
CCN1CCc2c(cccc2NC(C)=O)C1

>  <enum_smi>  (627) 
CCN1CCc2c(cccc2[N-]C(C)=O)C1

>  <enum_code>  (627) 
M

>  <parent_uuid>  (627) 
159e9a67-9ddd-4f06-8bc8-f63c27ed1469

>  <o3da_score>  (627) 
67.857786480817026

>  <o3da_score_rel>  (627) 
0.27015170743684719

>  <o3da_align>  (627) 
0.47324661509289428

>  <RMSD>  (627) 
7.0241690400220399e-05

>  <CONVERGED>  (627) 
0

>  <ENERGY>  (627) 
52.204754347442559

$$$$
53c6c8e5-481a-4c89-81f5-572ca7e96310
     RDKit          3D

 16 17  0  0  0  0  0  0  0  0999 V2000
   -0.3352   29.6012    4.2804 C   0  0  0  0  0  0  0  0  0  0  0  0
   -1.7159   29.3374    4.8730 C   0  0  0  0  0  0  0  0  0  0  0  0
   -2.8008   29.5238    3.8957 N   0  0  0  0  0  0  0  0  0  0  0  0
   -2.7706   28.5501    2.7877 C   0  0  0  0  0  0  0  0  0  0  0  0
   -2.9348   27.0832    3.2072 C   0  0  0  0  0  0  0  0  0  0  0  0
   -4.0188   26.8693    4.2486 C   0  0  0  0  0  0  0  0  0  0  0  0
   -4.5479   27.9991    4.9197 C   0  0  0  0  0  0  0  0  0  0  0  0
   -5.5349   27.8235    5.8964 C   0  0  0  0  0  0  0  0  0  0  0  0
   -5.9737   26.5463    6.2191 C   0  0  0  0  0  0  0  0  0  0  0  0
   -5.4326   25.4353    5.5690 C   0  0  0  0  0  0  0  0  0  0  0  0
   -4.4334   25.5528    4.5850 C   0  0  0  0  0  0  0  0  0  0  0  0
   -3.9126   24.4911    3.9168 N   0  0  0  0  0  2  0  0  0  0  0  0
   -3.7452   23.3166    4.5367 C   0  0  0  0  0  0  0  0  0  0  0  0
   -3.4190   22.2531    3.5128 C   0  0  0  0  0  0  0  0  0  0  0  0
   -3.7837   23.0229    5.7327 O   0  0  0  0  0  0  0  0  0  0  0  0
   -4.1194   29.4039    4.5545 C   0  0  0  0  0  0  0  0  0  0  0  0
  1  2  1  0
  2  3  1  0
  3  4  1  0
  4  5  1  0
  5  6  1  0
  6  7  2  0
  7  8  1  0
  8  9  2  0
  9 10  1  0
 10 11  2  0
 11 12  1  0
 12 13  1  0
 13 14  1  0
 13 15  2  0
  7 16  1  0
 16  3  1  0
 11  6  1  0
M  CHG  1  12  -1
M  END
>  <Energy>  (628) 
53.099351554352843

>  <Energy_Delta>  (628) 
1.0237746370157126

>  <std_smi>  (628) 
CCN1CCc2c(cccc2NC(C)=O)C1

>  <enum_smi>  (628) 
CCN1CCc2c(cccc2[N-]C(C)=O)C1

>  <enum_code>  (628) 
M

>  <parent_uuid>  (628) 
159e9a67-9ddd-4f06-8bc8-f63c27ed1469

>  <o3da_score>  (628) 
65.28197840143406

>  <o3da_score_rel>  (628) 
0.2598970412185253

>  <o3da_align>  (628) 
0.53873896286165357

>  <RMSD>  (628) 
0.55018694657540923

>  <CONVERGED>  (628) 
0

>  <ENERGY>  (628) 
52.056626568046767

$$$$
53c6c8e5-481a-4c89-81f5-572ca7e96310
     RDKit          3D

 16 17  0  0  0  0  0  0  0  0999 V2000
   -5.1821   30.8759    5.3460 C   0  0  0  0  0  0  0  0  0  0  0  0
   -3.8175   30.3250    4.9457 C   0  0  0  0  0  0  0  0  0  0  0  0
   -3.6352   28.9167    5.3164 N   0  0  0  0  0  0  0  0  0  0  0  0
   -2.2436   28.4996    5.0660 C   0  0  0  0  0  0  0  0  0  0  0  0
   -1.9719   27.0917    5.6034 C   0  0  0  0  0  0  0  0  0  0  0  0
   -2.9827   26.0731    5.1194 C   0  0  0  0  0  0  0  0  0  0  0  0
   -4.2394   26.5449    4.6738 C   0  0  0  0  0  0  0  0  0  0  0  0
   -5.2098   25.6272    4.2518 C   0  0  0  0  0  0  0  0  0  0  0  0
   -4.9460   24.2645    4.2946 C   0  0  0  0  0  0  0  0  0  0  0  0
   -3.7083   23.8064    4.7497 C   0  0  0  0  0  0  0  0  0  0  0  0
   -2.6884   24.6835    5.1635 C   0  0  0  0  0  0  0  0  0  0  0  0
   -1.4960   24.2593    5.6569 N   0  0  0  0  0  2  0  0  0  0  0  0
   -0.9124   23.1623    5.1590 C   0  0  0  0  0  0  0  0  0  0  0  0
    0.2321   22.7531    6.0581 C   0  0  0  0  0  0  0  0  0  0  0  0
   -1.1441   22.5208    4.1328 O   0  0  0  0  0  0  0  0  0  0  0  0
   -4.5396   28.0254    4.5612 C   0  0  0  0  0  0  0  0  0  0  0  0
  1  2  1  0
  2  3  1  0
  3  4  1  0
  4  5  1  0
  5  6  1  0
  6  7  2  0
  7  8  1  0
  8  9  2  0
  9 10  1  0
 10 11  2  0
 11 12  1  0
 12 13  1  0
 13 14  1  0
 13 15  2  0
  7 16  1  0
 16  3  1  0
 11  6  1  0
M  CHG  1  12  -1
M  END
>  <Energy>  (629) 
53.135357216797374

>  <Energy_Delta>  (629) 
1.0597802994602432

>  <std_smi>  (629) 
CCN1CCc2c(cccc2NC(C)=O)C1

>  <enum_smi>  (629) 
CCN1CCc2c(cccc2[N-]C(C)=O)C1

>  <enum_code>  (629) 
M

>  <parent_uuid>  (629) 
159e9a67-9ddd-4f06-8bc8-f63c27ed1469

>  <o3da_score>  (629) 
61.06392380307858

>  <o3da_score_rel>  (629) 
0.2431043529965228

>  <o3da_align>  (629) 
0.1829761512899151

>  <RMSD>  (629) 
7.2378006295934576e-05

>  <CONVERGED>  (629) 
0

>  <ENERGY>  (629) 
53.135357171408565

$$$$
53c6c8e5-481a-4c89-81f5-572ca7e96310
     RDKit          3D

 16 17  0  0  0  0  0  0  0  0999 V2000
   -5.1821   30.8759    5.3460 C   0  0  0  0  0  0  0  0  0  0  0  0
   -3.8174   30.3250    4.9458 C   0  0  0  0  0  0  0  0  0  0  0  0
   -3.6352   28.9168    5.3164 N   0  0  0  0  0  0  0  0  0  0  0  0
   -2.2435   28.4997    5.0660 C   0  0  0  0  0  0  0  0  0  0  0  0
   -1.9718   27.0917    5.6034 C   0  0  0  0  0  0  0  0  0  0  0  0
   -2.9827   26.0731    5.1194 C   0  0  0  0  0  0  0  0  0  0  0  0
   -4.2394   26.5450    4.6738 C   0  0  0  0  0  0  0  0  0  0  0  0
   -5.2098   25.6273    4.2518 C   0  0  0  0  0  0  0  0  0  0  0  0
   -4.9460   24.2646    4.2946 C   0  0  0  0  0  0  0  0  0  0  0  0
   -3.7082   23.8065    4.7497 C   0  0  0  0  0  0  0  0  0  0  0  0
   -2.6884   24.6835    5.1635 C   0  0  0  0  0  0  0  0  0  0  0  0
   -1.4960   24.2593    5.6569 N   0  0  0  0  0  2  0  0  0  0  0  0
   -0.9123   23.1624    5.1590 C   0  0  0  0  0  0  0  0  0  0  0  0
    0.2321   22.7531    6.0581 C   0  0  0  0  0  0  0  0  0  0  0  0
   -1.1441   22.5209    4.1327 O   0  0  0  0  0  0  0  0  0  0  0  0
   -4.5396   28.0254    4.5612 C   0  0  0  0  0  0  0  0  0  0  0  0
  1  2  1  0
  2  3  1  0
  3  4  1  0
  4  5  1  0
  5  6  1  0
  6  7  2  0
  7  8  1  0
  8  9  2  0
  9 10  1  0
 10 11  2  0
 11 12  1  0
 12 13  1  0
 13 14  1  0
 13 15  2  0
  7 16  1  0
 16  3  1  0
 11  6  1  0
M  CHG  1  12  -1
M  END
>  <Energy>  (630) 
53.135357219897891

>  <Energy_Delta>  (630) 
1.0597803025607604

>  <std_smi>  (630) 
CCN1CCc2c(cccc2NC(C)=O)C1

>  <enum_smi>  (630) 
CCN1CCc2c(cccc2[N-]C(C)=O)C1

>  <enum_code>  (630) 
M

>  <parent_uuid>  (630) 
159e9a67-9ddd-4f06-8bc8-f63c27ed1469

>  <o3da_score>  (630) 
61.063845012672736

>  <o3da_score_rel>  (630) 
0.2431040393204692

>  <o3da_align>  (630) 
0.18298380495143765

>  <RMSD>  (630) 
8.1745939559337556e-05

>  <CONVERGED>  (630) 
0

>  <ENERGY>  (630) 
53.135357173074148

$$$$
53c6c8e5-481a-4c89-81f5-572ca7e96310
     RDKit          3D

 16 17  0  0  0  0  0  0  0  0999 V2000
   -3.6253   30.0829    2.7503 C   0  0  0  0  0  0  0  0  0  0  0  0
   -2.9601   29.2942    3.8743 C   0  0  0  0  0  0  0  0  0  0  0  0
   -3.8830   29.0491    4.9957 N   0  0  0  0  0  0  0  0  0  0  0  0
   -3.1452   28.6366    6.2079 C   0  0  0  0  0  0  0  0  0  0  0  0
   -2.3660   27.3210    6.0757 C   0  0  0  0  0  0  0  0  0  0  0  0
   -3.1523   26.2265    5.3835 C   0  0  0  0  0  0  0  0  0  0  0  0
   -4.3333   26.5709    4.6847 C   0  0  0  0  0  0  0  0  0  0  0  0
   -5.0642   25.5729    4.0259 C   0  0  0  0  0  0  0  0  0  0  0  0
   -4.6191   24.2560    4.0385 C   0  0  0  0  0  0  0  0  0  0  0  0
   -3.4431   23.9247    4.7117 C   0  0  0  0  0  0  0  0  0  0  0  0
   -2.6761   24.8914    5.3821 C   0  0  0  0  0  0  0  0  0  0  0  0
   -1.5617   24.4980    6.0441 N   0  0  0  0  0  2  0  0  0  0  0  0
   -0.3913   24.7416    5.4372 C   0  0  0  0  0  0  0  0  0  0  0  0
    0.7412   24.2735    6.3215 C   0  0  0  0  0  0  0  0  0  0  0  0
   -0.1472   25.2546    4.3440 O   0  0  0  0  0  0  0  0  0  0  0  0
   -4.8662   27.9877    4.6932 C   0  0  0  0  0  0  0  0  0  0  0  0
  1  2  1  0
  2  3  1  0
  3  4  1  0
  4  5  1  0
  5  6  1  0
  6  7  2  0
  7  8  1  0
  8  9  2  0
  9 10  1  0
 10 11  2  0
 11 12  1  0
 12 13  1  0
 13 14  1  0
 13 15  2  0
  7 16  1  0
 16  3  1  0
 11  6  1  0
M  CHG  1  12  -1
M  END
>  <Energy>  (631) 
53.23428004192197

>  <Energy_Delta>  (631) 
1.1587031245848394

>  <std_smi>  (631) 
CCN1CCc2c(cccc2NC(C)=O)C1

>  <enum_smi>  (631) 
CCN1CCc2c(cccc2[N-]C(C)=O)C1

>  <enum_code>  (631) 
M

>  <parent_uuid>  (631) 
159e9a67-9ddd-4f06-8bc8-f63c27ed1469

>  <o3da_score>  (631) 
72.47408594274404

>  <o3da_score_rel>  (631) 
0.28852986632406541

>  <o3da_align>  (631) 
0.35754674924085678

>  <RMSD>  (631) 
5.4635842613219319e-05

>  <CONVERGED>  (631) 
0

>  <ENERGY>  (631) 
53.234280031871755

$$$$
53c6c8e5-481a-4c89-81f5-572ca7e96310
     RDKit          3D

 16 17  0  0  0  0  0  0  0  0999 V2000
   -0.9171   33.4361    3.5714 C   0  0  0  0  0  0  0  0  0  0  0  0
   -1.2175   32.5326    2.3801 C   0  0  0  0  0  0  0  0  0  0  0  0
   -1.4648   31.1407    2.7723 N   0  0  0  0  0  0  0  0  0  0  0  0
   -2.7635   30.9695    3.4472 C   0  0  0  0  0  0  0  0  0  0  0  0
   -2.9397   29.5401    3.9731 C   0  0  0  0  0  0  0  0  0  0  0  0
   -2.6625   28.4806    2.9266 C   0  0  0  0  0  0  0  0  0  0  0  0
   -1.8818   28.8430    1.8045 C   0  0  0  0  0  0  0  0  0  0  0  0
   -1.5752   27.8783    0.8367 C   0  0  0  0  0  0  0  0  0  0  0  0
   -2.0152   26.5705    0.9930 C   0  0  0  0  0  0  0  0  0  0  0  0
   -2.7739   26.2173    2.1106 C   0  0  0  0  0  0  0  0  0  0  0  0
   -3.1314   27.1506    3.1014 C   0  0  0  0  0  0  0  0  0  0  0  0
   -3.8255   26.8192    4.2212 N   0  0  0  0  0  2  0  0  0  0  0  0
   -4.7906   25.8932    4.1667 C   0  0  0  0  0  0  0  0  0  0  0  0
   -5.1966   25.5110    5.5720 C   0  0  0  0  0  0  0  0  0  0  0  0
   -5.3659   25.3837    3.2034 O   0  0  0  0  0  0  0  0  0  0  0  0
   -1.4434   30.2727    1.5753 C   0  0  0  0  0  0  0  0  0  0  0  0
  1  2  1  0
  2  3  1  0
  3  4  1  0
  4  5  1  0
  5  6  1  0
  6  7  2  0
  7  8  1  0
  8  9  2  0
  9 10  1  0
 10 11  2  0
 11 12  1  0
 12 13  1  0
 13 14  1  0
 13 15  2  0
  7 16  1  0
 16  3  1  0
 11  6  1  0
M  CHG  1  12  -1
M  END
>  <Energy>  (632) 
53.361659260202352

>  <Energy_Delta>  (632) 
1.2860823428652211

>  <std_smi>  (632) 
CCN1CCc2c(cccc2NC(C)=O)C1

>  <enum_smi>  (632) 
CCN1CCc2c(cccc2[N-]C(C)=O)C1

>  <enum_code>  (632) 
M

>  <parent_uuid>  (632) 
159e9a67-9ddd-4f06-8bc8-f63c27ed1469

>  <o3da_score>  (632) 
66.091272924586633

>  <o3da_score_rel>  (632) 
0.2631189603023546

>  <o3da_align>  (632) 
0.4595307512607284

>  <RMSD>  (632) 
6.8467240828100524e-05

>  <CONVERGED>  (632) 
0

>  <ENERGY>  (632) 
53.361659252875178

$$$$
53c6c8e5-481a-4c89-81f5-572ca7e96310
     RDKit          3D

 16 17  0  0  0  0  0  0  0  0999 V2000
   -0.5497   30.5165    3.5883 C   0  0  0  0  0  0  0  0  0  0  0  0
   -2.0547   30.5229    3.8344 C   0  0  0  0  0  0  0  0  0  0  0  0
   -2.5787   29.1962    4.1778 N   0  0  0  0  0  0  0  0  0  0  0  0
   -2.5995   28.2838    3.0209 C   0  0  0  0  0  0  0  0  0  0  0  0
   -3.0155   26.8660    3.4305 C   0  0  0  0  0  0  0  0  0  0  0  0
   -4.2913   26.8305    4.2464 C   0  0  0  0  0  0  0  0  0  0  0  0
   -4.6938   28.0168    4.9026 C   0  0  0  0  0  0  0  0  0  0  0  0
   -5.8481   28.0091    5.6955 C   0  0  0  0  0  0  0  0  0  0  0  0
   -6.5763   26.8374    5.8542 C   0  0  0  0  0  0  0  0  0  0  0  0
   -6.1647   25.6667    5.2141 C   0  0  0  0  0  0  0  0  0  0  0  0
   -5.0270   25.6229    4.3869 C   0  0  0  0  0  0  0  0  0  0  0  0
   -4.5798   24.4850    3.7949 N   0  0  0  0  0  2  0  0  0  0  0  0
   -5.4498   23.5752    3.3395 C   0  0  0  0  0  0  0  0  0  0  0  0
   -4.7091   22.3022    2.9981 C   0  0  0  0  0  0  0  0  0  0  0  0
   -6.6644   23.6476    3.1450 O   0  0  0  0  0  0  0  0  0  0  0  0
   -3.9575   29.3223    4.6971 C   0  0  0  0  0  0  0  0  0  0  0  0
  1  2  1  0
  2  3  1  0
  3  4  1  0
  4  5  1  0
  5  6  1  0
  6  7  2  0
  7  8  1  0
  8  9  2  0
  9 10  1  0
 10 11  2  0
 11 12  1  0
 12 13  1  0
 13 14  1  0
 13 15  2  0
  7 16  1  0
 16  3  1  0
 11  6  1  0
M  CHG  1  12  -1
M  END
>  <Energy>  (633) 
53.361659262828475

>  <Energy_Delta>  (633) 
1.2860823454913444

>  <std_smi>  (633) 
CCN1CCc2c(cccc2NC(C)=O)C1

>  <enum_smi>  (633) 
CCN1CCc2c(cccc2[N-]C(C)=O)C1

>  <enum_code>  (633) 
M

>  <parent_uuid>  (633) 
159e9a67-9ddd-4f06-8bc8-f63c27ed1469

>  <o3da_score>  (633) 
68.913031097189318

>  <o3da_score_rel>  (633) 
0.27435278957731907

>  <o3da_align>  (633) 
0.57009465220167077

>  <RMSD>  (633) 
6.0946616385804067e-05

>  <CONVERGED>  (633) 
0

>  <ENERGY>  (633) 
53.361659255858989

$$$$
53c6c8e5-481a-4c89-81f5-572ca7e96310
     RDKit          3D

 16 17  0  0  0  0  0  0  0  0999 V2000
   -3.3967   29.8595    7.6613 C   0  0  0  0  0  0  0  0  0  0  0  0
   -4.1152   28.8486    6.7730 C   0  0  0  0  0  0  0  0  0  0  0  0
   -3.6845   28.9168    5.3674 N   0  0  0  0  0  0  0  0  0  0  0  0
   -2.2744   28.5333    5.1624 C   0  0  0  0  0  0  0  0  0  0  0  0
   -1.9314   27.0894    5.5531 C   0  0  0  0  0  0  0  0  0  0  0  0
   -2.9674   26.0796    5.0956 C   0  0  0  0  0  0  0  0  0  0  0  0
   -4.2256   26.5482    4.6468 C   0  0  0  0  0  0  0  0  0  0  0  0
   -5.2040   25.6296    4.2465 C   0  0  0  0  0  0  0  0  0  0  0  0
   -4.9534   24.2653    4.3239 C   0  0  0  0  0  0  0  0  0  0  0  0
   -3.7194   23.8080    4.7878 C   0  0  0  0  0  0  0  0  0  0  0  0
   -2.6909   24.6909    5.1711 C   0  0  0  0  0  0  0  0  0  0  0  0
   -1.4972   24.2501    5.6548 N   0  0  0  0  0  2  0  0  0  0  0  0
   -0.9534   23.1911    5.0436 C   0  0  0  0  0  0  0  0  0  0  0  0
   -0.5354   23.4726    3.6137 C   0  0  0  0  0  0  0  0  0  0  0  0
   -0.7334   22.0912    5.5519 O   0  0  0  0  0  0  0  0  0  0  0  0
   -4.5139   28.0291    4.5246 C   0  0  0  0  0  0  0  0  0  0  0  0
  1  2  1  0
  2  3  1  0
  3  4  1  0
  4  5  1  0
  5  6  1  0
  6  7  2  0
  7  8  1  0
  8  9  2  0
  9 10  1  0
 10 11  2  0
 11 12  1  0
 12 13  1  0
 13 14  1  0
 13 15  2  0
  7 16  1  0
 16  3  1  0
 11  6  1  0
M  CHG  1  12  -1
M  END
>  <Energy>  (634) 
53.510281691708037

>  <Energy_Delta>  (634) 
1.4347047743709069

>  <std_smi>  (634) 
CCN1CCc2c(cccc2NC(C)=O)C1

>  <enum_smi>  (634) 
CCN1CCc2c(cccc2[N-]C(C)=O)C1

>  <enum_code>  (634) 
M

>  <parent_uuid>  (634) 
159e9a67-9ddd-4f06-8bc8-f63c27ed1469

>  <o3da_score>  (634) 
60.758663001118855

>  <o3da_score_rel>  (634) 
0.24188906539078467

>  <o3da_align>  (634) 
0.21128359220558771

>  <RMSD>  (634) 
6.7672248352645536e-05

>  <CONVERGED>  (634) 
0

>  <ENERGY>  (634) 
53.510281658299263

$$$$
53c6c8e5-481a-4c89-81f5-572ca7e96310
     RDKit          3D

 16 17  0  0  0  0  0  0  0  0999 V2000
   -4.5363   31.0216    4.3573 C   0  0  0  0  0  0  0  0  0  0  0  0
   -3.7851   30.2902    5.4648 C   0  0  0  0  0  0  0  0  0  0  0  0
   -3.3817   28.9315    5.0853 N   0  0  0  0  0  0  0  0  0  0  0  0
   -2.5109   28.3479    6.1206 C   0  0  0  0  0  0  0  0  0  0  0  0
   -1.9293   27.0028    5.6760 C   0  0  0  0  0  0  0  0  0  0  0  0
   -2.9897   26.0340    5.1944 C   0  0  0  0  0  0  0  0  0  0  0  0
   -4.2280   26.5672    4.7659 C   0  0  0  0  0  0  0  0  0  0  0  0
   -5.2204   25.7037    4.2857 C   0  0  0  0  0  0  0  0  0  0  0  0
   -4.9827   24.3374    4.2198 C   0  0  0  0  0  0  0  0  0  0  0  0
   -3.7532   23.8206    4.6336 C   0  0  0  0  0  0  0  0  0  0  0  0
   -2.7149   24.6410    5.1120 C   0  0  0  0  0  0  0  0  0  0  0  0
   -1.5202   24.1649    5.5499 N   0  0  0  0  0  2  0  0  0  0  0  0
   -0.9810   23.0624    5.0164 C   0  0  0  0  0  0  0  0  0  0  0  0
    0.1967   22.6266    5.8588 C   0  0  0  0  0  0  0  0  0  0  0  0
   -1.2706   22.4301    3.9993 O   0  0  0  0  0  0  0  0  0  0  0  0
   -4.5449   28.0438    4.8848 C   0  0  0  0  0  0  0  0  0  0  0  0
  1  2  1  0
  2  3  1  0
  3  4  1  0
  4  5  1  0
  5  6  1  0
  6  7  2  0
  7  8  1  0
  8  9  2  0
  9 10  1  0
 10 11  2  0
 11 12  1  0
 12 13  1  0
 13 14  1  0
 13 15  2  0
  7 16  1  0
 16  3  1  0
 11  6  1  0
M  CHG  1  12  -1
M  END
>  <Energy>  (635) 
53.590962302835912

>  <Energy_Delta>  (635) 
1.5153853854987815

>  <std_smi>  (635) 
CCN1CCc2c(cccc2NC(C)=O)C1

>  <enum_smi>  (635) 
CCN1CCc2c(cccc2[N-]C(C)=O)C1

>  <enum_code>  (635) 
M

>  <parent_uuid>  (635) 
159e9a67-9ddd-4f06-8bc8-f63c27ed1469

>  <o3da_score>  (635) 
63.730520342107894

>  <o3da_score_rel>  (635) 
0.25372046126388581

>  <o3da_align>  (635) 
0.47031072778816518

>  <RMSD>  (635) 
6.4837580809819838e-05

>  <CONVERGED>  (635) 
0

>  <ENERGY>  (635) 
53.590962301116747

$$$$
53c6c8e5-481a-4c89-81f5-572ca7e96310
     RDKit          3D

 16 17  0  0  0  0  0  0  0  0999 V2000
   -3.7258   30.0079    2.7082 C   0  0  0  0  0  0  0  0  0  0  0  0
   -2.9204   29.1725    3.6987 C   0  0  0  0  0  0  0  0  0  0  0  0
   -3.6341   28.9841    4.9711 N   0  0  0  0  0  0  0  0  0  0  0  0
   -2.7219   28.5117    6.0326 C   0  0  0  0  0  0  0  0  0  0  0  0
   -2.0878   27.1375    5.7770 C   0  0  0  0  0  0  0  0  0  0  0  0
   -3.0669   26.1121    5.2382 C   0  0  0  0  0  0  0  0  0  0  0  0
   -4.3238   26.5541    4.7610 C   0  0  0  0  0  0  0  0  0  0  0  0
   -5.2346   25.6234    4.2451 C   0  0  0  0  0  0  0  0  0  0  0  0
   -4.8978   24.2768    4.1846 C   0  0  0  0  0  0  0  0  0  0  0  0
   -3.6485   23.8496    4.6355 C   0  0  0  0  0  0  0  0  0  0  0  0
   -2.6936   24.7472    5.1513 C   0  0  0  0  0  0  0  0  0  0  0  0
   -1.4777   24.3331    5.6017 N   0  0  0  0  0  2  0  0  0  0  0  0
   -0.8417   23.4174    4.8613 C   0  0  0  0  0  0  0  0  0  0  0  0
   -0.4406   23.9252    3.4900 C   0  0  0  0  0  0  0  0  0  0  0  0
   -0.5307   22.2810    5.2196 O   0  0  0  0  0  0  0  0  0  0  0  0
   -4.7372   28.0065    4.8667 C   0  0  0  0  0  0  0  0  0  0  0  0
  1  2  1  0
  2  3  1  0
  3  4  1  0
  4  5  1  0
  5  6  1  0
  6  7  2  0
  7  8  1  0
  8  9  2  0
  9 10  1  0
 10 11  2  0
 11 12  1  0
 12 13  1  0
 13 14  1  0
 13 15  2  0
  7 16  1  0
 16  3  1  0
 11  6  1  0
M  CHG  1  12  -1
M  END
>  <Energy>  (636) 
53.611706318412658

>  <Energy_Delta>  (636) 
1.5361294010755273

>  <std_smi>  (636) 
CCN1CCc2c(cccc2NC(C)=O)C1

>  <enum_smi>  (636) 
CCN1CCc2c(cccc2[N-]C(C)=O)C1

>  <enum_code>  (636) 
M

>  <parent_uuid>  (636) 
159e9a67-9ddd-4f06-8bc8-f63c27ed1469

>  <o3da_score>  (636) 
67.997356045438806

>  <o3da_score_rel>  (636) 
0.27070735415248903

>  <o3da_align>  (636) 
0.16114627163480708

>  <RMSD>  (636) 
6.1841018217017108e-05

>  <CONVERGED>  (636) 
0

>  <ENERGY>  (636) 
53.611706312634311

$$$$
53c6c8e5-481a-4c89-81f5-572ca7e96310
     RDKit          3D

 16 17  0  0  0  0  0  0  0  0999 V2000
   -3.7285   30.0024    2.7026 C   0  0  0  0  0  0  0  0  0  0  0  0
   -2.9216   29.1675    3.6924 C   0  0  0  0  0  0  0  0  0  0  0  0
   -3.6316   28.9842    4.9679 N   0  0  0  0  0  0  0  0  0  0  0  0
   -2.7160   28.5135    6.0270 C   0  0  0  0  0  0  0  0  0  0  0  0
   -2.0854   27.1372    5.7742 C   0  0  0  0  0  0  0  0  0  0  0  0
   -3.0693   26.1110    5.2454 C   0  0  0  0  0  0  0  0  0  0  0  0
   -4.3252   26.5543    4.7666 C   0  0  0  0  0  0  0  0  0  0  0  0
   -5.2351   25.6251    4.2468 C   0  0  0  0  0  0  0  0  0  0  0  0
   -4.8920   24.2811    4.1686 C   0  0  0  0  0  0  0  0  0  0  0  0
   -3.6439   23.8524    4.6219 C   0  0  0  0  0  0  0  0  0  0  0  0
   -2.7065   24.7417    5.1829 C   0  0  0  0  0  0  0  0  0  0  0  0
   -1.4751   24.3343    5.5962 N   0  0  0  0  0  2  0  0  0  0  0  0
   -1.4145   23.1703    6.2536 C   0  0  0  0  0  0  0  0  0  0  0  0
   -2.1138   23.2032    7.5984 C   0  0  0  0  0  0  0  0  0  0  0  0
   -0.8181   22.1574    5.8863 O   0  0  0  0  0  0  0  0  0  0  0  0
   -4.7361   28.0077    4.8690 C   0  0  0  0  0  0  0  0  0  0  0  0
  1  2  1  0
  2  3  1  0
  3  4  1  0
  4  5  1  0
  5  6  1  0
  6  7  2  0
  7  8  1  0
  8  9  2  0
  9 10  1  0
 10 11  2  0
 11 12  1  0
 12 13  1  0
 13 14  1  0
 13 15  2  0
  7 16  1  0
 16  3  1  0
 11  6  1  0
M  CHG  1  12  -1
M  END
>  <Energy>  (637) 
53.650890276586345

>  <Energy_Delta>  (637) 
1.5753133592492148

>  <std_smi>  (637) 
CCN1CCc2c(cccc2NC(C)=O)C1

>  <enum_smi>  (637) 
CCN1CCc2c(cccc2[N-]C(C)=O)C1

>  <enum_code>  (637) 
M

>  <parent_uuid>  (637) 
159e9a67-9ddd-4f06-8bc8-f63c27ed1469

>  <o3da_score>  (637) 
67.991345999528875

>  <o3da_score_rel>  (637) 
0.2706834272864867

>  <o3da_align>  (637) 
0.16161304685221733

>  <RMSD>  (637) 
6.3993962749684847e-05

>  <CONVERGED>  (637) 
0

>  <ENERGY>  (637) 
53.650890259411298

$$$$
53c6c8e5-481a-4c89-81f5-572ca7e96310
     RDKit          3D

 16 17  0  0  0  0  0  0  0  0999 V2000
   -1.9499   31.2057    2.3738 C   0  0  0  0  0  0  0  0  0  0  0  0
   -2.2325   30.6213    3.7537 C   0  0  0  0  0  0  0  0  0  0  0  0
   -3.1328   29.4642    3.7062 N   0  0  0  0  0  0  0  0  0  0  0  0
   -2.4850   28.2682    3.1416 C   0  0  0  0  0  0  0  0  0  0  0  0
   -3.4823   27.1163    2.9693 C   0  0  0  0  0  0  0  0  0  0  0  0
   -4.2842   26.8275    4.2222 C   0  0  0  0  0  0  0  0  0  0  0  0
   -4.3795   27.8471    5.1979 C   0  0  0  0  0  0  0  0  0  0  0  0
   -5.1399   27.6273    6.3529 C   0  0  0  0  0  0  0  0  0  0  0  0
   -5.8049   26.4214    6.5293 C   0  0  0  0  0  0  0  0  0  0  0  0
   -5.7147   25.4238    5.5563 C   0  0  0  0  0  0  0  0  0  0  0  0
   -4.9762   25.5939    4.3706 C   0  0  0  0  0  0  0  0  0  0  0  0
   -4.8447   24.6316    3.4206 N   0  0  0  0  0  2  0  0  0  0  0  0
   -5.8278   23.7537    3.1886 C   0  0  0  0  0  0  0  0  0  0  0  0
   -5.3137   22.6592    2.2808 C   0  0  0  0  0  0  0  0  0  0  0  0
   -7.0035   23.7385    3.5570 O   0  0  0  0  0  0  0  0  0  0  0  0
   -3.6079   29.1420    5.0684 C   0  0  0  0  0  0  0  0  0  0  0  0
  1  2  1  0
  2  3  1  0
  3  4  1  0
  4  5  1  0
  5  6  1  0
  6  7  2  0
  7  8  1  0
  8  9  2  0
  9 10  1  0
 10 11  2  0
 11 12  1  0
 12 13  1  0
 13 14  1  0
 13 15  2  0
  7 16  1  0
 16  3  1  0
 11  6  1  0
M  CHG  1  12  -1
M  END
>  <Energy>  (638) 
53.824121290064042

>  <Energy_Delta>  (638) 
1.7485443727269114

>  <std_smi>  (638) 
CCN1CCc2c(cccc2NC(C)=O)C1

>  <enum_smi>  (638) 
CCN1CCc2c(cccc2[N-]C(C)=O)C1

>  <enum_code>  (638) 
M

>  <parent_uuid>  (638) 
159e9a67-9ddd-4f06-8bc8-f63c27ed1469

>  <o3da_score>  (638) 
72.365662403463602

>  <o3da_score_rel>  (638) 
0.28809821646069655

>  <o3da_align>  (638) 
0.47311095924418822

>  <RMSD>  (638) 
7.765275186852372e-05

>  <CONVERGED>  (638) 
0

>  <ENERGY>  (638) 
53.824121214036246

$$$$
53c6c8e5-481a-4c89-81f5-572ca7e96310
     RDKit          3D

 16 17  0  0  0  0  0  0  0  0999 V2000
   -3.9767   23.4992    5.1050 C   0  0  0  0  0  0  0  0  0  0  0  0
   -3.0491   24.5397    5.7238 C   0  0  0  0  0  0  0  0  0  0  0  0
   -3.0105   25.7972    4.9680 N   0  0  0  0  0  0  0  0  0  0  0  0
   -1.9678   26.6868    5.5113 C   0  0  0  0  0  0  0  0  0  0  0  0
   -1.7779   27.9311    4.6391 C   0  0  0  0  0  0  0  0  0  0  0  0
   -3.0785   28.6512    4.3536 C   0  0  0  0  0  0  0  0  0  0  0  0
   -4.2854   27.9274    4.4843 C   0  0  0  0  0  0  0  0  0  0  0  0
   -5.5036   28.5595    4.1994 C   0  0  0  0  0  0  0  0  0  0  0  0
   -5.5236   29.8840    3.7802 C   0  0  0  0  0  0  0  0  0  0  0  0
   -4.3275   30.5882    3.6400 C   0  0  0  0  0  0  0  0  0  0  0  0
   -3.0765   29.9948    3.8986 C   0  0  0  0  0  0  0  0  0  0  0  0
   -1.9085   30.6836    3.7774 N   0  0  0  0  0  2  0  0  0  0  0  0
   -1.7910   31.4881    2.7145 C   0  0  0  0  0  0  0  0  0  0  0  0
   -1.7662   30.7408    1.3955 C   0  0  0  0  0  0  0  0  0  0  0  0
   -1.6537   32.7117    2.7401 O   0  0  0  0  0  0  0  0  0  0  0  0
   -4.3063   26.5052    5.0059 C   0  0  0  0  0  0  0  0  0  0  0  0
  1  2  1  0
  2  3  1  0
  3  4  1  0
  4  5  1  0
  5  6  1  0
  6  7  2  0
  7  8  1  0
  8  9  2  0
  9 10  1  0
 10 11  2  0
 11 12  1  0
 12 13  1  0
 13 14  1  0
 13 15  2  0
  7 16  1  0
 16  3  1  0
 11  6  1  0
M  CHG  1  12  -1
M  END
>  <Energy>  (639) 
54.526433669935123

>  <Energy_Delta>  (639) 
2.4508567525979927

>  <std_smi>  (639) 
CCN1CCc2c(cccc2NC(C)=O)C1

>  <enum_smi>  (639) 
CCN1CCc2c(cccc2[N-]C(C)=O)C1

>  <enum_code>  (639) 
M

>  <parent_uuid>  (639) 
159e9a67-9ddd-4f06-8bc8-f63c27ed1469

>  <o3da_score>  (639) 
71.249251466200363

>  <o3da_score_rel>  (639) 
0.28365362230954344

>  <o3da_align>  (639) 
0.58736576766103599

>  <RMSD>  (639) 
7.0975092669504886e-05

>  <CONVERGED>  (639) 
0

>  <ENERGY>  (639) 
54.526433656818554

$$$$
53c6c8e5-481a-4c89-81f5-572ca7e96310
     RDKit          3D

 16 17  0  0  0  0  0  0  0  0999 V2000
   -5.0544   30.6481    3.7142 C   0  0  0  0  0  0  0  0  0  0  0  0
   -5.2402   29.9605    5.0643 C   0  0  0  0  0  0  0  0  0  0  0  0
   -4.8885   28.5432    5.1454 N   0  0  0  0  0  0  0  0  0  0  0  0
   -3.4910   28.2623    4.7956 C   0  0  0  0  0  0  0  0  0  0  0  0
   -3.1030   26.8320    5.1879 C   0  0  0  0  0  0  0  0  0  0  0  0
   -4.0874   25.7898    4.6922 C   0  0  0  0  0  0  0  0  0  0  0  0
   -5.3952   26.2137    4.3531 C   0  0  0  0  0  0  0  0  0  0  0  0
   -6.3384   25.2699    3.9284 C   0  0  0  0  0  0  0  0  0  0  0  0
   -5.9976   23.9253    3.8649 C   0  0  0  0  0  0  0  0  0  0  0  0
   -4.7101   23.5128    4.2144 C   0  0  0  0  0  0  0  0  0  0  0  0
   -3.7154   24.4199    4.6251 C   0  0  0  0  0  0  0  0  0  0  0  0
   -2.4729   24.0358    5.0176 N   0  0  0  0  0  2  0  0  0  0  0  0
   -1.8634   23.0068    4.4162 C   0  0  0  0  0  0  0  0  0  0  0  0
   -0.6437   22.6111    5.2170 C   0  0  0  0  0  0  0  0  0  0  0  0
   -2.1246   22.4162    3.3668 O   0  0  0  0  0  0  0  0  0  0  0  0
   -5.7764   27.6797    4.3518 C   0  0  0  0  0  0  0  0  0  0  0  0
  1  2  1  0
  2  3  1  0
  3  4  1  0
  4  5  1  0
  5  6  1  0
  6  7  2  0
  7  8  1  0
  8  9  2  0
  9 10  1  0
 10 11  2  0
 11 12  1  0
 12 13  1  0
 13 14  1  0
 13 15  2  0
  7 16  1  0
 16  3  1  0
 11  6  1  0
M  CHG  1  12  -1
M  END
>  <Energy>  (640) 
54.935233716478372

>  <Energy_Delta>  (640) 
2.8596567991412414

>  <std_smi>  (640) 
CCN1CCc2c(cccc2NC(C)=O)C1

>  <enum_smi>  (640) 
CCN1CCc2c(cccc2[N-]C(C)=O)C1

>  <enum_code>  (640) 
M

>  <parent_uuid>  (640) 
159e9a67-9ddd-4f06-8bc8-f63c27ed1469

>  <o3da_score>  (640) 
66.595109599893391

>  <o3da_score_rel>  (640) 
0.26512480731214327

>  <o3da_align>  (640) 
0.70472975138225746

>  <RMSD>  (640) 
7.459949325103238e-05

>  <CONVERGED>  (640) 
0

>  <ENERGY>  (640) 
54.935233696501292

$$$$
53c6c8e5-481a-4c89-81f5-572ca7e96310
     RDKit          3D

 16 17  0  0  0  0  0  0  0  0999 V2000
   -2.9637   30.9142    3.8753 C   0  0  0  0  0  0  0  0  0  0  0  0
   -3.4778   30.3359    5.1911 C   0  0  0  0  0  0  0  0  0  0  0  0
   -3.3808   28.8872    5.3666 N   0  0  0  0  0  0  0  0  0  0  0  0
   -4.0969   28.1204    4.3402 C   0  0  0  0  0  0  0  0  0  0  0  0
   -4.2172   26.6453    4.7402 C   0  0  0  0  0  0  0  0  0  0  0  0
   -2.8955   26.0322    5.1622 C   0  0  0  0  0  0  0  0  0  0  0  0
   -1.8541   26.9022    5.5667 C   0  0  0  0  0  0  0  0  0  0  0  0
   -0.6348   26.3655    5.9980 C   0  0  0  0  0  0  0  0  0  0  0  0
   -0.4600   24.9889    6.0508 C   0  0  0  0  0  0  0  0  0  0  0  0
   -1.4964   24.1369    5.6636 C   0  0  0  0  0  0  0  0  0  0  0  0
   -2.7339   24.6207    5.1996 C   0  0  0  0  0  0  0  0  0  0  0  0
   -3.7726   23.8114    4.8659 N   0  0  0  0  0  2  0  0  0  0  0  0
   -3.5462   22.6336    4.2714 C   0  0  0  0  0  0  0  0  0  0  0  0
   -4.8206   21.8201    4.2722 C   0  0  0  0  0  0  0  0  0  0  0  0
   -2.5318   22.1813    3.7378 O   0  0  0  0  0  0  0  0  0  0  0  0
   -1.9936   28.4066    5.4597 C   0  0  0  0  0  0  0  0  0  0  0  0
  1  2  1  0
  2  3  1  0
  3  4  1  0
  4  5  1  0
  5  6  1  0
  6  7  2  0
  7  8  1  0
  8  9  2  0
  9 10  1  0
 10 11  2  0
 11 12  1  0
 12 13  1  0
 13 14  1  0
 13 15  2  0
  7 16  1  0
 16  3  1  0
 11  6  1  0
M  CHG  1  12  -1
M  END
>  <Energy>  (641) 
54.935233721898697

>  <Energy_Delta>  (641) 
2.8596568045615669

>  <std_smi>  (641) 
CCN1CCc2c(cccc2NC(C)=O)C1

>  <enum_smi>  (641) 
CCN1CCc2c(cccc2[N-]C(C)=O)C1

>  <enum_code>  (641) 
M

>  <parent_uuid>  (641) 
159e9a67-9ddd-4f06-8bc8-f63c27ed1469

>  <o3da_score>  (641) 
68.53238901252594

>  <o3da_score_rel>  (641) 
0.27283739813254804

>  <o3da_align>  (641) 
0.41129403818336646

>  <RMSD>  (641) 
7.4215992890849176e-05

>  <CONVERGED>  (641) 
0

>  <ENERGY>  (641) 
54.935233696162499

$$$$
53c6c8e5-481a-4c89-81f5-572ca7e96310
     RDKit          3D

 16 17  0  0  0  0  0  0  0  0999 V2000
    0.1285   32.8856    1.7237 C   0  0  0  0  0  0  0  0  0  0  0  0
   -1.1889   32.5794    2.4283 C   0  0  0  0  0  0  0  0  0  0  0  0
   -1.3992   31.1430    2.6384 N   0  0  0  0  0  0  0  0  0  0  0  0
   -1.7076   30.4310    1.3849 C   0  0  0  0  0  0  0  0  0  0  0  0
   -1.7741   28.9154    1.6047 C   0  0  0  0  0  0  0  0  0  0  0  0
   -2.6701   28.5188    2.7593 C   0  0  0  0  0  0  0  0  0  0  0  0
   -2.9753   29.4971    3.7326 C   0  0  0  0  0  0  0  0  0  0  0  0
   -3.8018   29.1630    4.8148 C   0  0  0  0  0  0  0  0  0  0  0  0
   -4.3153   27.8772    4.9339 C   0  0  0  0  0  0  0  0  0  0  0  0
   -4.0053   26.9134    3.9750 C   0  0  0  0  0  0  0  0  0  0  0  0
   -3.1620   27.1925    2.8862 C   0  0  0  0  0  0  0  0  0  0  0  0
   -2.9268   26.1997    1.9899 N   0  0  0  0  0  2  0  0  0  0  0  0
   -1.6580   25.7993    1.8235 C   0  0  0  0  0  0  0  0  0  0  0  0
   -0.8745   25.5753    3.1037 C   0  0  0  0  0  0  0  0  0  0  0  0
   -1.1321   25.5481    0.7369 O   0  0  0  0  0  0  0  0  0  0  0  0
   -2.5134   30.9310    3.5847 C   0  0  0  0  0  0  0  0  0  0  0  0
  1  2  1  0
  2  3  1  0
  3  4  1  0
  4  5  1  0
  5  6  1  0
  6  7  2  0
  7  8  1  0
  8  9  2  0
  9 10  1  0
 10 11  2  0
 11 12  1  0
 12 13  1  0
 13 14  1  0
 13 15  2  0
  7 16  1  0
 16  3  1  0
 11  6  1  0
M  CHG  1  12  -1
M  END
>  <Energy>  (642) 
55.589360992743728

>  <Energy_Delta>  (642) 
3.5137840754065977

>  <std_smi>  (642) 
CCN1CCc2c(cccc2NC(C)=O)C1

>  <enum_smi>  (642) 
CCN1CCc2c(cccc2[N-]C(C)=O)C1

>  <enum_code>  (642) 
M

>  <parent_uuid>  (642) 
159e9a67-9ddd-4f06-8bc8-f63c27ed1469

>  <o3da_score>  (642) 
76.262353629070176

>  <o3da_score_rel>  (642) 
0.30361151040301204

>  <o3da_align>  (642) 
0.40981870629818334

>  <RMSD>  (642) 
6.5012685322283386e-05

>  <CONVERGED>  (642) 
0

>  <ENERGY>  (642) 
55.589360968427165

$$$$
53c6c8e5-481a-4c89-81f5-572ca7e96310
     RDKit          3D

 16 17  0  0  0  0  0  0  0  0999 V2000
   -2.5343   31.6261    3.4925 C   0  0  0  0  0  0  0  0  0  0  0  0
   -1.9130   30.3030    3.9277 C   0  0  0  0  0  0  0  0  0  0  0  0
   -2.8231   29.1621    3.7727 N   0  0  0  0  0  0  0  0  0  0  0  0
   -2.1062   27.9004    4.0350 C   0  0  0  0  0  0  0  0  0  0  0  0
   -2.9737   26.6783    3.7198 C   0  0  0  0  0  0  0  0  0  0  0  0
   -4.3314   26.7339    4.3869 C   0  0  0  0  0  0  0  0  0  0  0  0
   -4.8311   27.9981    4.7744 C   0  0  0  0  0  0  0  0  0  0  0  0
   -6.1194   28.0956    5.3200 C   0  0  0  0  0  0  0  0  0  0  0  0
   -6.9147   26.9631    5.4479 C   0  0  0  0  0  0  0  0  0  0  0  0
   -6.4221   25.7201    5.0530 C   0  0  0  0  0  0  0  0  0  0  0  0
   -5.1227   25.5658    4.5404 C   0  0  0  0  0  0  0  0  0  0  0  0
   -4.7197   24.3287    4.1567 N   0  0  0  0  0  2  0  0  0  0  0  0
   -3.8043   23.6930    4.9053 C   0  0  0  0  0  0  0  0  0  0  0  0
   -3.8318   23.9727    6.3968 C   0  0  0  0  0  0  0  0  0  0  0  0
   -2.9917   22.8738    4.4681 O   0  0  0  0  0  0  0  0  0  0  0  0
   -3.9811   29.2492    4.6838 C   0  0  0  0  0  0  0  0  0  0  0  0
  1  2  1  0
  2  3  1  0
  3  4  1  0
  4  5  1  0
  5  6  1  0
  6  7  2  0
  7  8  1  0
  8  9  2  0
  9 10  1  0
 10 11  2  0
 11 12  1  0
 12 13  1  0
 13 14  1  0
 13 15  2  0
  7 16  1  0
 16  3  1  0
 11  6  1  0
M  CHG  1  12  -1
M  END
>  <Energy>  (643) 
55.919600581965824

>  <Energy_Delta>  (643) 
3.8440236646286934

>  <std_smi>  (643) 
CCN1CCc2c(cccc2NC(C)=O)C1

>  <enum_smi>  (643) 
CCN1CCc2c(cccc2[N-]C(C)=O)C1

>  <enum_code>  (643) 
M

>  <parent_uuid>  (643) 
159e9a67-9ddd-4f06-8bc8-f63c27ed1469

>  <o3da_score>  (643) 
70.918889923763231

>  <o3da_score_rel>  (643) 
0.28233840500893065

>  <o3da_align>  (643) 
0.43758712042129749

>  <RMSD>  (643) 
6.8040000873470938e-05

>  <CONVERGED>  (643) 
0

>  <ENERGY>  (643) 
55.919600515650529

$$$$
53c6c8e5-481a-4c89-81f5-572ca7e96310
     RDKit          3D

 16 17  0  0  0  0  0  0  0  0999 V2000
   -4.2948   24.3780    4.1327 C   0  0  0  0  0  0  0  0  0  0  0  0
   -5.0072   25.7134    4.3194 C   0  0  0  0  0  0  0  0  0  0  0  0
   -4.0855   26.8549    4.3087 N   0  0  0  0  0  0  0  0  0  0  0  0
   -3.5497   27.1304    2.9635 C   0  0  0  0  0  0  0  0  0  0  0  0
   -2.4888   28.2373    2.9914 C   0  0  0  0  0  0  0  0  0  0  0  0
   -2.9402   29.4792    3.7307 C   0  0  0  0  0  0  0  0  0  0  0  0
   -3.9984   29.3539    4.6593 C   0  0  0  0  0  0  0  0  0  0  0  0
   -4.3857   30.4644    5.4227 C   0  0  0  0  0  0  0  0  0  0  0  0
   -3.7117   31.6729    5.2941 C   0  0  0  0  0  0  0  0  0  0  0  0
   -2.6607   31.7890    4.3853 C   0  0  0  0  0  0  0  0  0  0  0  0
   -2.2644   30.7166    3.5681 C   0  0  0  0  0  0  0  0  0  0  0  0
   -1.2189   30.8974    2.7228 N   0  0  0  0  0  2  0  0  0  0  0  0
   -1.4661   30.9607    1.4048 C   0  0  0  0  0  0  0  0  0  0  0  0
   -2.7913   31.5738    0.9906 C   0  0  0  0  0  0  0  0  0  0  0  0
   -0.6748   30.6041    0.5278 O   0  0  0  0  0  0  0  0  0  0  0  0
   -4.7803   28.0653    4.7930 C   0  0  0  0  0  0  0  0  0  0  0  0
  1  2  1  0
  2  3  1  0
  3  4  1  0
  4  5  1  0
  5  6  1  0
  6  7  2  0
  7  8  1  0
  8  9  2  0
  9 10  1  0
 10 11  2  0
 11 12  1  0
 12 13  1  0
 13 14  1  0
 13 15  2  0
  7 16  1  0
 16  3  1  0
 11  6  1  0
M  CHG  1  12  -1
M  END
>  <Energy>  (644) 
56.143457592523127

>  <Energy_Delta>  (644) 
4.0678806751859966

>  <std_smi>  (644) 
CCN1CCc2c(cccc2NC(C)=O)C1

>  <enum_smi>  (644) 
CCN1CCc2c(cccc2[N-]C(C)=O)C1

>  <enum_code>  (644) 
M

>  <parent_uuid>  (644) 
159e9a67-9ddd-4f06-8bc8-f63c27ed1469

>  <o3da_score>  (644) 
72.138951536185488

>  <o3da_score_rel>  (644) 
0.28719564755790772

>  <o3da_align>  (644) 
0.44106252061039208

>  <RMSD>  (644) 
8.1639479103356985e-05

>  <CONVERGED>  (644) 
0

>  <ENERGY>  (644) 
56.143457585216865

$$$$
53c6c8e5-481a-4c89-81f5-572ca7e96310
     RDKit          3D

 16 17  0  0  0  0  0  0  0  0999 V2000
   -2.6370   22.0616    3.4165 C   0  0  0  0  0  0  0  0  0  0  0  0
   -3.2458   22.4143    4.7710 C   0  0  0  0  0  0  0  0  0  0  0  0
   -3.6542   23.8035    4.9771 N   0  0  0  0  0  0  0  0  0  0  0  0
   -2.5587   24.7683    4.8228 C   0  0  0  0  0  0  0  0  0  0  0  0
   -2.9666   26.1512    5.3442 C   0  0  0  0  0  0  0  0  0  0  0  0
   -4.2991   26.6244    4.7973 C   0  0  0  0  0  0  0  0  0  0  0  0
   -5.1902   25.6599    4.2701 C   0  0  0  0  0  0  0  0  0  0  0  0
   -6.4413   26.0657    3.7868 C   0  0  0  0  0  0  0  0  0  0  0  0
   -6.8089   27.4047    3.8364 C   0  0  0  0  0  0  0  0  0  0  0  0
   -5.9312   28.3492    4.3696 C   0  0  0  0  0  0  0  0  0  0  0  0
   -4.6688   27.9912    4.8822 C   0  0  0  0  0  0  0  0  0  0  0  0
   -3.8045   28.9127    5.3893 N   0  0  0  0  0  2  0  0  0  0  0  0
   -4.3290   29.8659    6.1686 C   0  0  0  0  0  0  0  0  0  0  0  0
   -4.9027   29.3324    7.4667 C   0  0  0  0  0  0  0  0  0  0  0  0
   -4.3251   31.0761    5.9400 O   0  0  0  0  0  0  0  0  0  0  0  0
   -4.7882   24.2059    4.1314 C   0  0  0  0  0  0  0  0  0  0  0  0
  1  2  1  0
  2  3  1  0
  3  4  1  0
  4  5  1  0
  5  6  1  0
  6  7  2  0
  7  8  1  0
  8  9  2  0
  9 10  1  0
 10 11  2  0
 11 12  1  0
 12 13  1  0
 13 14  1  0
 13 15  2  0
  7 16  1  0
 16  3  1  0
 11  6  1  0
M  CHG  1  12  -1
M  END
>  <Energy>  (645) 
56.305934827611544

>  <Energy_Delta>  (645) 
4.2303579102744138

>  <std_smi>  (645) 
CCN1CCc2c(cccc2NC(C)=O)C1

>  <enum_smi>  (645) 
CCN1CCc2c(cccc2[N-]C(C)=O)C1

>  <enum_code>  (645) 
M

>  <parent_uuid>  (645) 
159e9a67-9ddd-4f06-8bc8-f63c27ed1469

>  <o3da_score>  (645) 
73.448721201227684

>  <o3da_score_rel>  (645) 
0.29241003089857509

>  <o3da_align>  (645) 
0.25773362431686675

>  <RMSD>  (645) 
6.8098456645524939e-05

>  <CONVERGED>  (645) 
0

>  <ENERGY>  (645) 
56.30593482377229

$$$$
53c6c8e5-481a-4c89-81f5-572ca7e96310
     RDKit          3D

 16 17  0  0  0  0  0  0  0  0999 V2000
   -3.7426   29.0114    6.7683 C   0  0  0  0  0  0  0  0  0  0  0  0
   -3.6667   28.9381    5.2455 C   0  0  0  0  0  0  0  0  0  0  0  0
   -4.5784   28.0105    4.5770 N   0  0  0  0  0  0  0  0  0  0  0  0
   -5.9958   28.2819    4.8435 C   0  0  0  0  0  0  0  0  0  0  0  0
   -6.8972   27.4884    3.8903 C   0  0  0  0  0  0  0  0  0  0  0  0
   -6.5455   26.0151    3.8285 C   0  0  0  0  0  0  0  0  0  0  0  0
   -5.2534   25.6145    4.2432 C   0  0  0  0  0  0  0  0  0  0  0  0
   -4.8861   24.2651    4.1544 C   0  0  0  0  0  0  0  0  0  0  0  0
   -5.7751   23.3314    3.6361 C   0  0  0  0  0  0  0  0  0  0  0  0
   -7.0435   23.7344    3.2175 C   0  0  0  0  0  0  0  0  0  0  0  0
   -7.4719   25.0729    3.3129 C   0  0  0  0  0  0  0  0  0  0  0  0
   -8.6989   25.4704    2.8777 N   0  0  0  0  0  2  0  0  0  0  0  0
   -9.7344   24.6857    3.2003 C   0  0  0  0  0  0  0  0  0  0  0  0
   -9.9886   24.6040    4.6931 C   0  0  0  0  0  0  0  0  0  0  0  0
  -10.4828   24.1085    2.4106 O   0  0  0  0  0  0  0  0  0  0  0  0
   -4.2821   26.5987    4.8623 C   0  0  0  0  0  0  0  0  0  0  0  0
  1  2  1  0
  2  3  1  0
  3  4  1  0
  4  5  1  0
  5  6  1  0
  6  7  2  0
  7  8  1  0
  8  9  2  0
  9 10  1  0
 10 11  2  0
 11 12  1  0
 12 13  1  0
 13 14  1  0
 13 15  2  0
  7 16  1  0
 16  3  1  0
 11  6  1  0
M  CHG  1  12  -1
M  END
>  <Energy>  (646) 
56.543812027651526

>  <Energy_Delta>  (646) 
4.4682351103143958

>  <std_smi>  (646) 
CCN1CCc2c(cccc2NC(C)=O)C1

>  <enum_smi>  (646) 
CCN1CCc2c(cccc2[N-]C(C)=O)C1

>  <enum_code>  (646) 
M

>  <parent_uuid>  (646) 
159e9a67-9ddd-4f06-8bc8-f63c27ed1469

>  <o3da_score>  (646) 
65.701267816010386

>  <o3da_score_rel>  (646) 
0.26156629329897757

>  <o3da_align>  (646) 
0.18386207522734624

>  <RMSD>  (646) 
6.5995020669101312e-05

>  <CONVERGED>  (646) 
0

>  <ENERGY>  (646) 
56.543812006567279

$$$$
53c6c8e5-481a-4c89-81f5-572ca7e96310
     RDKit          3D

 16 17  0  0  0  0  0  0  0  0999 V2000
   -3.7108   30.5053    2.4696 C   0  0  0  0  0  0  0  0  0  0  0  0
   -3.7004   30.2822    3.9796 C   0  0  0  0  0  0  0  0  0  0  0  0
   -3.4124   28.9283    4.4510 N   0  0  0  0  0  0  0  0  0  0  0  0
   -2.1088   28.4160    4.0099 C   0  0  0  0  0  0  0  0  0  0  0  0
   -1.7320   27.1455    4.7799 C   0  0  0  0  0  0  0  0  0  0  0  0
   -2.8362   26.1063    4.7912 C   0  0  0  0  0  0  0  0  0  0  0  0
   -4.1577   26.5297    4.5145 C   0  0  0  0  0  0  0  0  0  0  0  0
   -5.2005   25.5925    4.5183 C   0  0  0  0  0  0  0  0  0  0  0  0
   -4.9403   24.2560    4.7961 C   0  0  0  0  0  0  0  0  0  0  0  0
   -3.6374   23.8446    5.0758 C   0  0  0  0  0  0  0  0  0  0  0  0
   -2.5626   24.7493    5.1087 C   0  0  0  0  0  0  0  0  0  0  0  0
   -1.3238   24.2598    5.3736 N   0  0  0  0  0  2  0  0  0  0  0  0
   -0.6907   24.7237    6.4607 C   0  0  0  0  0  0  0  0  0  0  0  0
   -1.5320   24.7943    7.7218 C   0  0  0  0  0  0  0  0  0  0  0  0
    0.5049   25.0215    6.5101 O   0  0  0  0  0  0  0  0  0  0  0  0
   -4.4642   27.9588    4.1139 C   0  0  0  0  0  0  0  0  0  0  0  0
  1  2  1  0
  2  3  1  0
  3  4  1  0
  4  5  1  0
  5  6  1  0
  6  7  2  0
  7  8  1  0
  8  9  2  0
  9 10  1  0
 10 11  2  0
 11 12  1  0
 12 13  1  0
 13 14  1  0
 13 15  2  0
  7 16  1  0
 16  3  1  0
 11  6  1  0
M  CHG  1  12  -1
M  END
>  <Energy>  (647) 
57.130846235395154

>  <Energy_Delta>  (647) 
5.0552693180580235

>  <std_smi>  (647) 
CCN1CCc2c(cccc2NC(C)=O)C1

>  <enum_smi>  (647) 
CCN1CCc2c(cccc2[N-]C(C)=O)C1

>  <enum_code>  (647) 
M

>  <parent_uuid>  (647) 
159e9a67-9ddd-4f06-8bc8-f63c27ed1469

>  <o3da_score>  (647) 
67.198407303933237

>  <o3da_score_rel>  (647) 
0.26752662312859593

>  <o3da_align>  (647) 
0.55780536671178271

>  <RMSD>  (647) 
6.3025535380457212e-05

>  <CONVERGED>  (647) 
0

>  <ENERGY>  (647) 
57.130846121225197

$$$$
53c6c8e5-481a-4c89-81f5-572ca7e96310
     RDKit          3D

 16 17  0  0  0  0  0  0  0  0999 V2000
   -7.1119   22.4208    1.2528 C   0  0  0  0  0  0  0  0  0  0  0  0
   -5.6426   22.4998    1.6566 C   0  0  0  0  0  0  0  0  0  0  0  0
   -5.4225   22.1684    3.0712 N   0  0  0  0  0  0  0  0  0  0  0  0
   -3.9849   21.8523    3.2967 C   0  0  0  0  0  0  0  0  0  0  0  0
   -3.3577   22.3777    4.6000 C   0  0  0  0  0  0  0  0  0  0  0  0
   -3.5823   23.8736    4.6760 C   0  0  0  0  0  0  0  0  0  0  0  0
   -4.8831   24.2950    4.3094 C   0  0  0  0  0  0  0  0  0  0  0  0
   -5.2121   25.6488    4.3286 C   0  0  0  0  0  0  0  0  0  0  0  0
   -4.2471   26.5753    4.7029 C   0  0  0  0  0  0  0  0  0  0  0  0
   -2.9655   26.1501    5.0750 C   0  0  0  0  0  0  0  0  0  0  0  0
   -2.5947   24.7920    5.0956 C   0  0  0  0  0  0  0  0  0  0  0  0
   -1.3537   24.3498    5.4197 N   0  0  0  0  0  2  0  0  0  0  0  0
   -0.6128   24.9998    6.3252 C   0  0  0  0  0  0  0  0  0  0  0  0
    0.8018   24.4675    6.2877 C   0  0  0  0  0  0  0  0  0  0  0  0
   -0.9154   25.8740    7.1391 O   0  0  0  0  0  0  0  0  0  0  0  0
   -5.8994   23.2264    3.9870 C   0  0  0  0  0  0  0  0  0  0  0  0
  1  2  1  0
  2  3  1  0
  3  4  1  0
  4  5  1  0
  5  6  1  0
  6  7  2  0
  7  8  1  0
  8  9  2  0
  9 10  1  0
 10 11  2  0
 11 12  1  0
 12 13  1  0
 13 14  1  0
 13 15  2  0
  7 16  1  0
 16  3  1  0
 11  6  1  0
M  CHG  1  12  -1
M  END
>  <Energy>  (648) 
57.724360020266055

>  <Energy_Delta>  (648) 
5.6487831029289239

>  <std_smi>  (648) 
CCN1CCc2c(cccc2NC(C)=O)C1

>  <enum_smi>  (648) 
CCN1CCc2c(cccc2[N-]C(C)=O)C1

>  <enum_code>  (648) 
M

>  <parent_uuid>  (648) 
159e9a67-9ddd-4f06-8bc8-f63c27ed1469

>  <o3da_score>  (648) 
67.990276188085346

>  <o3da_score_rel>  (648) 
0.2706791682116908

>  <o3da_align>  (648) 
0.24213229592909449

>  <RMSD>  (648) 
5.6670446255503678e-05

>  <CONVERGED>  (648) 
0

>  <ENERGY>  (648) 
57.724360018348683

$$$$
53c6c8e5-481a-4c89-81f5-572ca7e96310
     RDKit          3D

 16 17  0  0  0  0  0  0  0  0999 V2000
   -2.9341   30.8117    3.8060 C   0  0  0  0  0  0  0  0  0  0  0  0
   -2.3452   29.8100    4.7958 C   0  0  0  0  0  0  0  0  0  0  0  0
   -3.3750   28.9666    5.4190 N   0  0  0  0  0  0  0  0  0  0  0  0
   -4.0307   28.0819    4.4181 C   0  0  0  0  0  0  0  0  0  0  0  0
   -4.3231   26.6378    4.8640 C   0  0  0  0  0  0  0  0  0  0  0  0
   -3.0365   26.0141    5.3615 C   0  0  0  0  0  0  0  0  0  0  0  0
   -2.2507   26.8492    6.1899 C   0  0  0  0  0  0  0  0  0  0  0  0
   -1.0376   26.3895    6.7007 C   0  0  0  0  0  0  0  0  0  0  0  0
   -0.6046   25.1089    6.3773 C   0  0  0  0  0  0  0  0  0  0  0  0
   -1.3914   24.2830    5.5667 C   0  0  0  0  0  0  0  0  0  0  0  0
   -2.6371   24.6977    5.0541 C   0  0  0  0  0  0  0  0  0  0  0  0
   -3.4025   23.9090    4.2534 N   0  0  0  0  0  2  0  0  0  0  0  0
   -3.4591   22.6092    4.5652 C   0  0  0  0  0  0  0  0  0  0  0  0
   -4.1862   22.3394    5.8677 C   0  0  0  0  0  0  0  0  0  0  0  0
   -3.0356   21.6763    3.8820 O   0  0  0  0  0  0  0  0  0  0  0  0
   -2.8154   28.2005    6.5526 C   0  0  0  0  0  0  0  0  0  0  0  0
  1  2  1  0
  2  3  1  0
  3  4  1  0
  4  5  1  0
  5  6  1  0
  6  7  2  0
  7  8  1  0
  8  9  2  0
  9 10  1  0
 10 11  2  0
 11 12  1  0
 12 13  1  0
 13 14  1  0
 13 15  2  0
  7 16  1  0
 16  3  1  0
 11  6  1  0
M  CHG  1  12  -1
M  END
>  <Energy>  (649) 
58.405003746253662

>  <Energy_Delta>  (649) 
6.3294268289165316

>  <std_smi>  (649) 
CCN1CCc2c(cccc2NC(C)=O)C1

>  <enum_smi>  (649) 
CCN1CCc2c(cccc2[N-]C(C)=O)C1

>  <enum_code>  (649) 
M

>  <parent_uuid>  (649) 
159e9a67-9ddd-4f06-8bc8-f63c27ed1469

>  <o3da_score>  (649) 
66.795418957857294

>  <o3da_score_rel>  (649) 
0.26592226797032176

>  <o3da_align>  (649) 
0.47014231769006803

>  <RMSD>  (649) 
7.0805099885868562e-05

>  <CONVERGED>  (649) 
0

>  <ENERGY>  (649) 
58.405003687001596

$$$$
53c6c8e5-481a-4c89-81f5-572ca7e96310
     RDKit          3D

 16 17  0  0  0  0  0  0  0  0999 V2000
   -3.4647   31.0391    6.6459 C   0  0  0  0  0  0  0  0  0  0  0  0
   -3.7510   30.2674    5.3616 C   0  0  0  0  0  0  0  0  0  0  0  0
   -3.6987   28.8199    5.5586 N   0  0  0  0  0  0  0  0  0  0  0  0
   -2.3512   28.3229    5.9090 C   0  0  0  0  0  0  0  0  0  0  0  0
   -1.8639   27.0190    5.2413 C   0  0  0  0  0  0  0  0  0  0  0  0
   -2.9842   26.0322    5.0039 C   0  0  0  0  0  0  0  0  0  0  0  0
   -4.2182   26.5984    4.6083 C   0  0  0  0  0  0  0  0  0  0  0  0
   -5.3084   25.7736    4.3313 C   0  0  0  0  0  0  0  0  0  0  0  0
   -5.1693   24.3966    4.4507 C   0  0  0  0  0  0  0  0  0  0  0  0
   -3.9392   23.8419    4.8222 C   0  0  0  0  0  0  0  0  0  0  0  0
   -2.8035   24.6314    5.0844 C   0  0  0  0  0  0  0  0  0  0  0  0
   -1.6026   24.1229    5.4608 N   0  0  0  0  0  2  0  0  0  0  0  0
   -1.1879   22.9422    4.9860 C   0  0  0  0  0  0  0  0  0  0  0  0
    0.0119   22.4778    5.7800 C   0  0  0  0  0  0  0  0  0  0  0  0
   -1.5982   22.2624    4.0437 O   0  0  0  0  0  0  0  0  0  0  0  0
   -4.2848   28.0950    4.4244 C   0  0  0  0  0  0  0  0  0  0  0  0
  1  2  1  0
  2  3  1  0
  3  4  1  0
  4  5  1  0
  5  6  1  0
  6  7  2  0
  7  8  1  0
  8  9  2  0
  9 10  1  0
 10 11  2  0
 11 12  1  0
 12 13  1  0
 13 14  1  0
 13 15  2  0
  7 16  1  0
 16  3  1  0
 11  6  1  0
M  CHG  1  12  -1
M  END
>  <Energy>  (650) 
58.591349397711625

>  <Energy_Delta>  (650) 
6.5157724803744941

>  <std_smi>  (650) 
CCN1CCc2c(cccc2NC(C)=O)C1

>  <enum_smi>  (650) 
CCN1CCc2c(cccc2[N-]C(C)=O)C1

>  <enum_code>  (650) 
M

>  <parent_uuid>  (650) 
159e9a67-9ddd-4f06-8bc8-f63c27ed1469

>  <o3da_score>  (650) 
61.622679057966678

>  <o3da_score_rel>  (650) 
0.24532883885106807

>  <o3da_align>  (650) 
0.49818385205009857

>  <RMSD>  (650) 
7.3065084176586321e-05

>  <CONVERGED>  (650) 
0

>  <ENERGY>  (650) 
58.591349394393106

$$$$
53c6c8e5-481a-4c89-81f5-572ca7e96310
     RDKit          3D

 16 17  0  0  0  0  0  0  0  0999 V2000
   -2.4549   30.6934    3.4682 C   0  0  0  0  0  0  0  0  0  0  0  0
   -3.4141   29.5176    3.6330 C   0  0  0  0  0  0  0  0  0  0  0  0
   -3.4076   28.9766    4.9990 N   0  0  0  0  0  0  0  0  0  0  0  0
   -2.0925   28.3667    5.3362 C   0  0  0  0  0  0  0  0  0  0  0  0
   -2.1246   27.0461    6.1279 C   0  0  0  0  0  0  0  0  0  0  0  0
   -3.0032   26.0542    5.3952 C   0  0  0  0  0  0  0  0  0  0  0  0
   -4.1998   26.5924    4.8676 C   0  0  0  0  0  0  0  0  0  0  0  0
   -5.0666   25.7879    4.1280 C   0  0  0  0  0  0  0  0  0  0  0  0
   -4.7372   24.4557    3.9048 C   0  0  0  0  0  0  0  0  0  0  0  0
   -3.5620   23.9222    4.4443 C   0  0  0  0  0  0  0  0  0  0  0  0
   -2.6826   24.6904    5.2268 C   0  0  0  0  0  0  0  0  0  0  0  0
   -1.5639   24.0976    5.7140 N   0  0  0  0  0  2  0  0  0  0  0  0
   -1.3986   24.0856    7.0451 C   0  0  0  0  0  0  0  0  0  0  0  0
   -2.6245   23.6946    7.8495 C   0  0  0  0  0  0  0  0  0  0  0  0
   -0.3344   24.3031    7.6285 O   0  0  0  0  0  0  0  0  0  0  0  0
   -4.5220   28.0284    5.1994 C   0  0  0  0  0  0  0  0  0  0  0  0
  1  2  1  0
  2  3  1  0
  3  4  1  0
  4  5  1  0
  5  6  1  0
  6  7  2  0
  7  8  1  0
  8  9  2  0
  9 10  1  0
 10 11  2  0
 11 12  1  0
 12 13  1  0
 13 14  1  0
 13 15  2  0
  7 16  1  0
 16  3  1  0
 11  6  1  0
M  CHG  1  12  -1
M  END
>  <Energy>  (651) 
59.028953115963397

>  <Energy_Delta>  (651) 
6.9533761986262661

>  <std_smi>  (651) 
CCN1CCc2c(cccc2NC(C)=O)C1

>  <enum_smi>  (651) 
CCN1CCc2c(cccc2[N-]C(C)=O)C1

>  <enum_code>  (651) 
M

>  <parent_uuid>  (651) 
159e9a67-9ddd-4f06-8bc8-f63c27ed1469

>  <o3da_score>  (651) 
73.017021342666879

>  <o3da_score_rel>  (651) 
0.29069137103743425

>  <o3da_align>  (651) 
0.25876048852052447

>  <RMSD>  (651) 
6.5628801100744974e-05

>  <CONVERGED>  (651) 
0

>  <ENERGY>  (651) 
59.028953105706428

$$$$
53c6c8e5-481a-4c89-81f5-572ca7e96310
     RDKit          3D

 16 17  0  0  0  0  0  0  0  0999 V2000
   -4.5546   30.4787    3.2240 C   0  0  0  0  0  0  0  0  0  0  0  0
   -3.4349   29.4713    3.4677 C   0  0  0  0  0  0  0  0  0  0  0  0
   -3.4281   28.9516    4.8420 N   0  0  0  0  0  0  0  0  0  0  0  0
   -2.1043   28.3390    5.1411 C   0  0  0  0  0  0  0  0  0  0  0  0
   -2.1158   27.0603    5.9961 C   0  0  0  0  0  0  0  0  0  0  0  0
   -3.0153   26.0439    5.3264 C   0  0  0  0  0  0  0  0  0  0  0  0
   -4.2340   26.5623    4.8298 C   0  0  0  0  0  0  0  0  0  0  0  0
   -5.1389   25.7239    4.1795 C   0  0  0  0  0  0  0  0  0  0  0  0
   -4.8252   24.3799    4.0149 C   0  0  0  0  0  0  0  0  0  0  0  0
   -3.6232   23.8704    4.5188 C   0  0  0  0  0  0  0  0  0  0  0  0
   -2.6945   24.6763    5.2075 C   0  0  0  0  0  0  0  0  0  0  0  0
   -1.5166   24.1953    5.6874 N   0  0  0  0  0  2  0  0  0  0  0  0
   -1.5436   22.9762    6.2380 C   0  0  0  0  0  0  0  0  0  0  0  0
   -2.3260   22.9249    7.5354 C   0  0  0  0  0  0  0  0  0  0  0  0
   -0.9672   21.9729    5.8167 O   0  0  0  0  0  0  0  0  0  0  0  0
   -4.5407   28.0149    5.1051 C   0  0  0  0  0  0  0  0  0  0  0  0
  1  2  1  0
  2  3  1  0
  3  4  1  0
  4  5  1  0
  5  6  1  0
  6  7  2  0
  7  8  1  0
  8  9  2  0
  9 10  1  0
 10 11  2  0
 11 12  1  0
 12 13  1  0
 13 14  1  0
 13 15  2  0
  7 16  1  0
 16  3  1  0
 11  6  1  0
M  CHG  1  12  -1
M  END
>  <Energy>  (652) 
59.110576161999916

>  <Energy_Delta>  (652) 
7.0349992446627851

>  <std_smi>  (652) 
CCN1CCc2c(cccc2NC(C)=O)C1

>  <enum_smi>  (652) 
CCN1CCc2c(cccc2[N-]C(C)=O)C1

>  <enum_code>  (652) 
M

>  <parent_uuid>  (652) 
159e9a67-9ddd-4f06-8bc8-f63c27ed1469

>  <o3da_score>  (652) 
67.821051513057952

>  <o3da_score_rel>  (652) 
0.27000546019275889

>  <o3da_align>  (652) 
0.18028965938485039

>  <RMSD>  (652) 
7.3451498084906407e-05

>  <CONVERGED>  (652) 
0

>  <ENERGY>  (652) 
59.110576120167515

$$$$
53c6c8e5-481a-4c89-81f5-572ca7e96310
     RDKit          3D

 16 17  0  0  0  0  0  0  0  0999 V2000
   -6.5420   26.7790    5.8458 C   0  0  0  0  0  0  0  0  0  0  0  0
   -5.2491   27.5481    6.0993 C   0  0  0  0  0  0  0  0  0  0  0  0
   -4.6092   27.9837    4.8589 N   0  0  0  0  0  0  0  0  0  0  0  0
   -4.1221   26.8606    4.0275 C   0  0  0  0  0  0  0  0  0  0  0  0
   -2.7361   26.9968    3.3608 C   0  0  0  0  0  0  0  0  0  0  0  0
   -2.4209   28.4168    2.9567 C   0  0  0  0  0  0  0  0  0  0  0  0
   -2.8743   29.4197    3.8425 C   0  0  0  0  0  0  0  0  0  0  0  0
   -2.6239   30.7651    3.5658 C   0  0  0  0  0  0  0  0  0  0  0  0
   -1.9275   31.1095    2.4127 C   0  0  0  0  0  0  0  0  0  0  0  0
   -1.4589   30.1122    1.5520 C   0  0  0  0  0  0  0  0  0  0  0  0
   -1.6644   28.7460    1.8099 C   0  0  0  0  0  0  0  0  0  0  0  0
   -1.1864   27.8428    0.9209 N   0  0  0  0  0  2  0  0  0  0  0  0
   -0.2184   27.0189    1.3465 C   0  0  0  0  0  0  0  0  0  0  0  0
    0.1278   26.0408    0.2476 C   0  0  0  0  0  0  0  0  0  0  0  0
    0.3765   26.9680    2.4245 O   0  0  0  0  0  0  0  0  0  0  0  0
   -3.5597   28.9794    5.1130 C   0  0  0  0  0  0  0  0  0  0  0  0
  1  2  1  0
  2  3  1  0
  3  4  1  0
  4  5  1  0
  5  6  1  0
  6  7  2  0
  7  8  1  0
  8  9  2  0
  9 10  1  0
 10 11  2  0
 11 12  1  0
 12 13  1  0
 13 14  1  0
 13 15  2  0
  7 16  1  0
 16  3  1  0
 11  6  1  0
M  CHG  1  12  -1
M  END
>  <Energy>  (653) 
59.334237859028399

>  <Energy_Delta>  (653) 
7.258660941691268

>  <std_smi>  (653) 
CCN1CCc2c(cccc2NC(C)=O)C1

>  <enum_smi>  (653) 
CCN1CCc2c(cccc2[N-]C(C)=O)C1

>  <enum_code>  (653) 
M

>  <parent_uuid>  (653) 
159e9a67-9ddd-4f06-8bc8-f63c27ed1469

>  <o3da_score>  (653) 
63.926366593185413

>  <o3da_score_rel>  (653) 
0.25450015364507855

>  <o3da_align>  (653) 
0.43896130997474875

>  <RMSD>  (653) 
6.3773293255508541e-05

>  <CONVERGED>  (653) 
0

>  <ENERGY>  (653) 
59.334237848788987

$$$$
53c6c8e5-481a-4c89-81f5-572ca7e96310
     RDKit          3D

 16 17  0  0  0  0  0  0  0  0999 V2000
   -2.5373   31.3096    3.6640 C   0  0  0  0  0  0  0  0  0  0  0  0
   -2.5997   29.8525    3.2158 C   0  0  0  0  0  0  0  0  0  0  0  0
   -2.4346   28.9082    4.3289 N   0  0  0  0  0  0  0  0  0  0  0  0
   -2.0786   27.5627    3.7989 C   0  0  0  0  0  0  0  0  0  0  0  0
   -2.7069   26.3498    4.5083 C   0  0  0  0  0  0  0  0  0  0  0  0
   -4.2106   26.5233    4.5302 C   0  0  0  0  0  0  0  0  0  0  0  0
   -4.6563   27.8318    4.8275 C   0  0  0  0  0  0  0  0  0  0  0  0
   -6.0197   28.1275    4.8234 C   0  0  0  0  0  0  0  0  0  0  0  0
   -6.9341   27.1270    4.5137 C   0  0  0  0  0  0  0  0  0  0  0  0
   -6.4900   25.8294    4.2391 C   0  0  0  0  0  0  0  0  0  0  0  0
   -5.1282   25.4831    4.2704 C   0  0  0  0  0  0  0  0  0  0  0  0
   -4.7797   24.2019    3.9919 N   0  0  0  0  0  2  0  0  0  0  0  0
   -4.1069   23.5241    4.9337 C   0  0  0  0  0  0  0  0  0  0  0  0
   -4.6548   23.6514    6.3432 C   0  0  0  0  0  0  0  0  0  0  0  0
   -3.1455   22.7820    4.7214 O   0  0  0  0  0  0  0  0  0  0  0  0
   -3.6142   28.8530    5.2154 C   0  0  0  0  0  0  0  0  0  0  0  0
  1  2  1  0
  2  3  1  0
  3  4  1  0
  4  5  1  0
  5  6  1  0
  6  7  2  0
  7  8  1  0
  8  9  2  0
  9 10  1  0
 10 11  2  0
 11 12  1  0
 12 13  1  0
 13 14  1  0
 13 15  2  0
  7 16  1  0
 16  3  1  0
 11  6  1  0
M  CHG  1  12  -1
M  END
>  <Energy>  (654) 
59.725342857537065

>  <Energy_Delta>  (654) 
7.6497659401999343

>  <std_smi>  (654) 
CCN1CCc2c(cccc2NC(C)=O)C1

>  <enum_smi>  (654) 
CCN1CCc2c(cccc2[N-]C(C)=O)C1

>  <enum_code>  (654) 
M

>  <parent_uuid>  (654) 
159e9a67-9ddd-4f06-8bc8-f63c27ed1469

>  <o3da_score>  (654) 
74.494049994497999

>  <o3da_score_rel>  (654) 
0.29657163670654979

>  <o3da_align>  (654) 
0.46094461873939441

>  <RMSD>  (654) 
5.9573165210148839e-05

>  <CONVERGED>  (654) 
0

>  <ENERGY>  (654) 
59.725342819617282

$$$$
53c6c8e5-481a-4c89-81f5-572ca7e96310
     RDKit          3D

 16 17  0  0  0  0  0  0  0  0999 V2000
   -6.5096   29.9583    5.7201 C   0  0  0  0  0  0  0  0  0  0  0  0
   -5.4973   29.0346    6.3909 C   0  0  0  0  0  0  0  0  0  0  0  0
   -4.2585   28.8901    5.6148 N   0  0  0  0  0  0  0  0  0  0  0  0
   -3.1779   28.3522    6.4871 C   0  0  0  0  0  0  0  0  0  0  0  0
   -2.2172   27.3316    5.8511 C   0  0  0  0  0  0  0  0  0  0  0  0
   -3.0300   26.1974    5.2643 C   0  0  0  0  0  0  0  0  0  0  0  0
   -4.2021   26.5946    4.5802 C   0  0  0  0  0  0  0  0  0  0  0  0
   -5.0611   25.6355    4.0432 C   0  0  0  0  0  0  0  0  0  0  0  0
   -4.7598   24.2869    4.1965 C   0  0  0  0  0  0  0  0  0  0  0  0
   -3.5896   23.8989    4.8572 C   0  0  0  0  0  0  0  0  0  0  0  0
   -2.6801   24.8351    5.3787 C   0  0  0  0  0  0  0  0  0  0  0  0
   -1.5679   24.3768    6.0057 N   0  0  0  0  0  2  0  0  0  0  0  0
   -0.3788   24.7562    5.5145 C   0  0  0  0  0  0  0  0  0  0  0  0
   -0.2383   24.6627    4.0064 C   0  0  0  0  0  0  0  0  0  0  0  0
    0.5901   25.1026    6.1938 O   0  0  0  0  0  0  0  0  0  0  0  0
   -4.4355   28.0748    4.3965 C   0  0  0  0  0  0  0  0  0  0  0  0
  1  2  1  0
  2  3  1  0
  3  4  1  0
  4  5  1  0
  5  6  1  0
  6  7  2  0
  7  8  1  0
  8  9  2  0
  9 10  1  0
 10 11  2  0
 11 12  1  0
 12 13  1  0
 13 14  1  0
 13 15  2  0
  7 16  1  0
 16  3  1  0
 11  6  1  0
M  CHG  1  12  -1
M  END
>  <Energy>  (655) 
59.725342868536288

>  <Energy_Delta>  (655) 
7.6497659511991571

>  <std_smi>  (655) 
CCN1CCc2c(cccc2NC(C)=O)C1

>  <enum_smi>  (655) 
CCN1CCc2c(cccc2[N-]C(C)=O)C1

>  <enum_code>  (655) 
M

>  <parent_uuid>  (655) 
159e9a67-9ddd-4f06-8bc8-f63c27ed1469

>  <o3da_score>  (655) 
64.832079936056871

>  <o3da_score_rel>  (655) 
0.25810593005946586

>  <o3da_align>  (655) 
0.43138873173441222

>  <RMSD>  (655) 
8.1430329097646268e-05

>  <CONVERGED>  (655) 
0

>  <ENERGY>  (655) 
59.725342820186022

$$$$
53c6c8e5-481a-4c89-81f5-572ca7e96310
     RDKit          3D

 16 17  0  0  0  0  0  0  0  0999 V2000
   -4.9997   29.7605    6.9184 C   0  0  0  0  0  0  0  0  0  0  0  0
   -5.1060   29.8146    5.3960 C   0  0  0  0  0  0  0  0  0  0  0  0
   -4.8183   28.5725    4.6830 N   0  0  0  0  0  0  0  0  0  0  0  0
   -3.4422   28.0765    4.8577 C   0  0  0  0  0  0  0  0  0  0  0  0
   -3.2932   26.7366    5.5944 C   0  0  0  0  0  0  0  0  0  0  0  0
   -4.1565   25.6914    4.9212 C   0  0  0  0  0  0  0  0  0  0  0  0
   -5.4280   26.1415    4.4911 C   0  0  0  0  0  0  0  0  0  0  0  0
   -6.2983   25.2590    3.8511 C   0  0  0  0  0  0  0  0  0  0  0  0
   -5.9060   23.9423    3.6453 C   0  0  0  0  0  0  0  0  0  0  0  0
   -4.6564   23.4995    4.0948 C   0  0  0  0  0  0  0  0  0  0  0  0
   -3.7399   24.3515    4.7392 C   0  0  0  0  0  0  0  0  0  0  0  0
   -2.5464   23.9420    5.2393 N   0  0  0  0  0  2  0  0  0  0  0  0
   -1.8612   22.9537    4.6522 C   0  0  0  0  0  0  0  0  0  0  0  0
   -0.7368   22.5164    5.5636 C   0  0  0  0  0  0  0  0  0  0  0  0
   -1.9923   22.4248    3.5471 O   0  0  0  0  0  0  0  0  0  0  0  0
   -5.8565   27.5452    4.8535 C   0  0  0  0  0  0  0  0  0  0  0  0
  1  2  1  0
  2  3  1  0
  3  4  1  0
  4  5  1  0
  5  6  1  0
  6  7  2  0
  7  8  1  0
  8  9  2  0
  9 10  1  0
 10 11  2  0
 11 12  1  0
 12 13  1  0
 13 14  1  0
 13 15  2  0
  7 16  1  0
 16  3  1  0
 11  6  1  0
M  CHG  1  12  -1
M  END
>  <Energy>  (656) 
60.377215244720432

>  <Energy_Delta>  (656) 
8.3016383273833014

>  <std_smi>  (656) 
CCN1CCc2c(cccc2NC(C)=O)C1

>  <enum_smi>  (656) 
CCN1CCc2c(cccc2[N-]C(C)=O)C1

>  <enum_code>  (656) 
M

>  <parent_uuid>  (656) 
159e9a67-9ddd-4f06-8bc8-f63c27ed1469

>  <o3da_score>  (656) 
65.298433311920832

>  <o3da_score_rel>  (656) 
0.25996255060800383

>  <o3da_align>  (656) 
0.74115387443823544

>  <RMSD>  (656) 
6.0118368723776056e-05

>  <CONVERGED>  (656) 
0

>  <ENERGY>  (656) 
60.377215228999198

$$$$
53c6c8e5-481a-4c89-81f5-572ca7e96310
     RDKit          3D

 16 17  0  0  0  0  0  0  0  0999 V2000
   -2.2678   30.3132    3.4326 C   0  0  0  0  0  0  0  0  0  0  0  0
   -3.4002   30.2194    4.4529 C   0  0  0  0  0  0  0  0  0  0  0  0
   -3.6501   28.8975    5.0219 N   0  0  0  0  0  0  0  0  0  0  0  0
   -2.5226   28.3446    5.7921 C   0  0  0  0  0  0  0  0  0  0  0  0
   -1.8659   27.0795    5.2189 C   0  0  0  0  0  0  0  0  0  0  0  0
   -2.9238   26.0222    4.9866 C   0  0  0  0  0  0  0  0  0  0  0  0
   -4.1514   26.4979    4.4659 C   0  0  0  0  0  0  0  0  0  0  0  0
   -5.1962   25.6060    4.2233 C   0  0  0  0  0  0  0  0  0  0  0  0
   -5.0173   24.2551    4.4940 C   0  0  0  0  0  0  0  0  0  0  0  0
   -3.7923   23.7899    4.9864 C   0  0  0  0  0  0  0  0  0  0  0  0
   -2.7103   24.6495    5.2544 C   0  0  0  0  0  0  0  0  0  0  0  0
   -1.4917   24.2255    5.6758 N   0  0  0  0  0  2  0  0  0  0  0  0
   -1.3753   23.1459    6.4579 C   0  0  0  0  0  0  0  0  0  0  0  0
    0.0791   22.7398    6.5344 C   0  0  0  0  0  0  0  0  0  0  0  0
   -2.2195   22.5166    7.0977 O   0  0  0  0  0  0  0  0  0  0  0  0
   -4.2505   27.9529    4.0681 C   0  0  0  0  0  0  0  0  0  0  0  0
  1  2  1  0
  2  3  1  0
  3  4  1  0
  4  5  1  0
  5  6  1  0
  6  7  2  0
  7  8  1  0
  8  9  2  0
  9 10  1  0
 10 11  2  0
 11 12  1  0
 12 13  1  0
 13 14  1  0
 13 15  2  0
  7 16  1  0
 16  3  1  0
 11  6  1  0
M  CHG  1  12  -1
M  END
>  <Energy>  (657) 
60.377215262027313

>  <Energy_Delta>  (657) 
8.3016383446901827

>  <std_smi>  (657) 
CCN1CCc2c(cccc2NC(C)=O)C1

>  <enum_smi>  (657) 
CCN1CCc2c(cccc2[N-]C(C)=O)C1

>  <enum_code>  (657) 
M

>  <parent_uuid>  (657) 
159e9a67-9ddd-4f06-8bc8-f63c27ed1469

>  <o3da_score>  (657) 
67.501995301961614

>  <o3da_score_rel>  (657) 
0.26873525105883184

>  <o3da_align>  (657) 
0.51413184396272327

>  <RMSD>  (657) 
8.020012604588518e-05

>  <CONVERGED>  (657) 
0

>  <ENERGY>  (657) 
60.377215228424561

$$$$
448e4648-f26c-4dce-8bd7-6c39fe65a344
     RDKit          3D

 16 17  0  0  0  0  0  0  0  0999 V2000
   -6.8914   28.8273    5.6675 C   0  0  0  0  0  0  0  0  0  0  0  0
   -5.8000   27.7758    5.5864 C   0  0  0  0  0  0  0  0  0  0  0  0
   -4.8148   28.1145    4.4945 N   0  0  0  0  0  4  0  0  0  0  0  0
   -3.8609   29.2268    4.8478 C   0  0  0  0  0  0  0  0  0  0  0  0
   -3.0907   29.6639    3.6009 C   0  0  0  0  0  0  0  0  0  0  0  0
   -2.5111   28.5219    2.7916 C   0  0  0  0  0  0  0  0  0  0  0  0
   -2.9843   27.2056    3.0252 C   0  0  0  0  0  0  0  0  0  0  0  0
   -2.4532   26.1333    2.2961 C   0  0  0  0  0  0  0  0  0  0  0  0
   -1.4880   26.3589    1.3256 C   0  0  0  0  0  0  0  0  0  0  0  0
   -1.0445   27.6554    1.0678 C   0  0  0  0  0  0  0  0  0  0  0  0
   -1.5460   28.7517    1.7782 C   0  0  0  0  0  0  0  0  0  0  0  0
   -1.1206   30.0765    1.5063 N   0  0  0  0  0  0  0  0  0  0  0  0
   -0.2018   30.4926    0.5522 C   0  0  0  0  0  0  0  0  0  0  0  0
   -0.0123   31.9897    0.5618 C   0  0  0  0  0  0  0  0  0  0  0  0
    0.4011   29.7899   -0.2485 O   0  0  0  0  0  0  0  0  0  0  0  0
   -4.0203   26.9016    4.0741 C   0  0  0  0  0  0  0  0  0  0  0  0
  1  2  1  0
  2  3  1  0
  3  4  1  0
  4  5  1  0
  5  6  1  0
  6  7  2  0
  7  8  1  0
  8  9  2  0
  9 10  1  0
 10 11  2  0
 11 12  1  0
 12 13  1  0
 13 14  1  0
 13 15  2  0
  7 16  1  0
 16  3  1  0
 11  6  1  0
M  CHG  1   3   1
M  END
>  <Energy>  (658) 
18.324096604305126

>  <Energy_Delta>  (658) 
0

>  <std_smi>  (658) 
CCN1CCc2c(cccc2NC(C)=O)C1

>  <enum_smi>  (658) 
CC[NH+]1CCc2c(cccc2NC(C)=O)C1

>  <enum_code>  (658) 
M

>  <parent_uuid>  (658) 
159e9a67-9ddd-4f06-8bc8-f63c27ed1469

>  <o3da_score>  (658) 
71.519852879861347

>  <o3da_score_rel>  (658) 
0.28473092585459803

>  <o3da_align>  (658) 
0.52619254761720557

>  <RMSD>  (658) 
0.042724818646661375

>  <CONVERGED>  (658) 
0

>  <ENERGY>  (658) 
18.327398470629419

$$$$
448e4648-f26c-4dce-8bd7-6c39fe65a344
     RDKit          3D

 16 17  0  0  0  0  0  0  0  0999 V2000
   -2.1843   21.9126    3.6528 C   0  0  0  0  0  0  0  0  0  0  0  0
   -3.4014   22.3432    4.4505 C   0  0  0  0  0  0  0  0  0  0  0  0
   -3.6384   23.8262    4.3009 N   0  0  0  0  0  4  0  0  0  0  0  0
   -2.6863   24.6857    5.0929 C   0  0  0  0  0  0  0  0  0  0  0  0
   -2.8394   26.1486    4.6739 C   0  0  0  0  0  0  0  0  0  0  0  0
   -4.2734   26.6326    4.6089 C   0  0  0  0  0  0  0  0  0  0  0  0
   -5.3205   25.6767    4.5905 C   0  0  0  0  0  0  0  0  0  0  0  0
   -6.6544   26.1035    4.5439 C   0  0  0  0  0  0  0  0  0  0  0  0
   -6.9527   27.4570    4.4848 C   0  0  0  0  0  0  0  0  0  0  0  0
   -5.9258   28.4000    4.4688 C   0  0  0  0  0  0  0  0  0  0  0  0
   -4.5819   28.0141    4.5229 C   0  0  0  0  0  0  0  0  0  0  0  0
   -3.5297   28.9632    4.4779 N   0  0  0  0  0  0  0  0  0  0  0  0
   -3.6385   30.3469    4.4462 C   0  0  0  0  0  0  0  0  0  0  0  0
   -2.2903   31.0217    4.3816 C   0  0  0  0  0  0  0  0  0  0  0  0
   -4.6682   31.0075    4.4912 O   0  0  0  0  0  0  0  0  0  0  0  0
   -5.0552   24.1968    4.6673 C   0  0  0  0  0  0  0  0  0  0  0  0
  1  2  1  0
  2  3  1  0
  3  4  1  0
  4  5  1  0
  5  6  1  0
  6  7  2  0
  7  8  1  0
  8  9  2  0
  9 10  1  0
 10 11  2  0
 11 12  1  0
 12 13  1  0
 13 14  1  0
 13 15  2  0
  7 16  1  0
 16  3  1  0
 11  6  1  0
M  CHG  1   3   1
M  END
>  <Energy>  (659) 
18.324096604841493

>  <Energy_Delta>  (659) 
5.3636739494322683e-10

>  <std_smi>  (659) 
CCN1CCc2c(cccc2NC(C)=O)C1

>  <enum_smi>  (659) 
CC[NH+]1CCc2c(cccc2NC(C)=O)C1

>  <enum_code>  (659) 
M

>  <parent_uuid>  (659) 
159e9a67-9ddd-4f06-8bc8-f63c27ed1469

>  <o3da_score>  (659) 
75.11866184528759

>  <o3da_score_rel>  (659) 
0.29905830723807086

>  <o3da_align>  (659) 
0.42497330832872671

>  <RMSD>  (659) 
6.7713394924124849e-05

>  <CONVERGED>  (659) 
0

>  <ENERGY>  (659) 
18.324096604018774

$$$$
448e4648-f26c-4dce-8bd7-6c39fe65a344
     RDKit          3D

 16 17  0  0  0  0  0  0  0  0999 V2000
   -3.7641   23.5115    4.9091 C   0  0  0  0  0  0  0  0  0  0  0  0
   -2.8557   24.5278    5.5761 C   0  0  0  0  0  0  0  0  0  0  0  0
   -2.9937   25.8855    4.9299 N   0  0  0  0  0  4  0  0  0  0  0  0
   -1.8914   26.8245    5.3537 C   0  0  0  0  0  0  0  0  0  0  0  0
   -1.9024   28.0716    4.4702 C   0  0  0  0  0  0  0  0  0  0  0  0
   -3.2687   28.7033    4.3076 C   0  0  0  0  0  0  0  0  0  0  0  0
   -4.4187   27.9455    4.6442 C   0  0  0  0  0  0  0  0  0  0  0  0
   -5.6921   28.5171    4.5163 C   0  0  0  0  0  0  0  0  0  0  0  0
   -5.8327   29.8099    4.0330 C   0  0  0  0  0  0  0  0  0  0  0  0
   -4.7068   30.5466    3.6682 C   0  0  0  0  0  0  0  0  0  0  0  0
   -3.4182   30.0148    3.7889 C   0  0  0  0  0  0  0  0  0  0  0  0
   -2.2692   30.7441    3.3918 N   0  0  0  0  0  0  0  0  0  0  0  0
   -2.2159   32.0490    2.9206 C   0  0  0  0  0  0  0  0  0  0  0  0
   -0.8088   32.4723    2.5765 C   0  0  0  0  0  0  0  0  0  0  0  0
   -3.1517   32.8290    2.8006 O   0  0  0  0  0  0  0  0  0  0  0  0
   -4.3284   26.5418    5.1839 C   0  0  0  0  0  0  0  0  0  0  0  0
  1  2  1  0
  2  3  1  0
  3  4  1  0
  4  5  1  0
  5  6  1  0
  6  7  2  0
  7  8  1  0
  8  9  2  0
  9 10  1  0
 10 11  2  0
 11 12  1  0
 12 13  1  0
 13 14  1  0
 13 15  2  0
  7 16  1  0
 16  3  1  0
 11  6  1  0
M  CHG  1   3   1
M  END
>  <Energy>  (660) 
18.363294955303726

>  <Energy_Delta>  (660) 
0.039198350998599807

>  <std_smi>  (660) 
CCN1CCc2c(cccc2NC(C)=O)C1

>  <enum_smi>  (660) 
CC[NH+]1CCc2c(cccc2NC(C)=O)C1

>  <enum_code>  (660) 
M

>  <parent_uuid>  (660) 
159e9a67-9ddd-4f06-8bc8-f63c27ed1469

>  <o3da_score>  (660) 
69.231904064860231

>  <o3da_score_rel>  (660) 
0.27562226919254501

>  <o3da_align>  (660) 
0.55863910014120377

>  <RMSD>  (660) 
7.5275356961762639e-05

>  <CONVERGED>  (660) 
0

>  <ENERGY>  (660) 
18.363294955198946

$$$$
448e4648-f26c-4dce-8bd7-6c39fe65a344
     RDKit          3D

 16 17  0  0  0  0  0  0  0  0999 V2000
   -6.4240   26.1812    4.6272 C   0  0  0  0  0  0  0  0  0  0  0  0
   -5.3447   26.8570    5.4525 C   0  0  0  0  0  0  0  0  0  0  0  0
   -4.6054   27.8907    4.6371 N   0  0  0  0  0  4  0  0  0  0  0  0
   -3.7559   28.7878    5.5029 C   0  0  0  0  0  0  0  0  0  0  0  0
   -3.2600   29.9810    4.6867 C   0  0  0  0  0  0  0  0  0  0  0  0
   -2.6612   29.6098    3.3464 C   0  0  0  0  0  0  0  0  0  0  0  0
   -2.9192   28.3215    2.8136 C   0  0  0  0  0  0  0  0  0  0  0  0
   -2.3625   27.9523    1.5815 C   0  0  0  0  0  0  0  0  0  0  0  0
   -1.5854   28.8529    0.8677 C   0  0  0  0  0  0  0  0  0  0  0  0
   -1.3584   30.1331    1.3708 C   0  0  0  0  0  0  0  0  0  0  0  0
   -1.8919   30.5381    2.5993 C   0  0  0  0  0  0  0  0  0  0  0  0
   -1.6899   31.8465    3.1068 N   0  0  0  0  0  0  0  0  0  0  0  0
   -0.9772   32.8829    2.5189 C   0  0  0  0  0  0  0  0  0  0  0  0
   -0.9937   34.1333    3.3637 C   0  0  0  0  0  0  0  0  0  0  0  0
   -0.4000   32.8635    1.4396 O   0  0  0  0  0  0  0  0  0  0  0  0
   -3.7473   27.2983    3.5465 C   0  0  0  0  0  0  0  0  0  0  0  0
  1  2  1  0
  2  3  1  0
  3  4  1  0
  4  5  1  0
  5  6  1  0
  6  7  2  0
  7  8  1  0
  8  9  2  0
  9 10  1  0
 10 11  2  0
 11 12  1  0
 12 13  1  0
 13 14  1  0
 13 15  2  0
  7 16  1  0
 16  3  1  0
 11  6  1  0
M  CHG  1   3   1
M  END
>  <Energy>  (661) 
18.363294955629616

>  <Energy_Delta>  (661) 
0.039198351324490233

>  <std_smi>  (661) 
CCN1CCc2c(cccc2NC(C)=O)C1

>  <enum_smi>  (661) 
CC[NH+]1CCc2c(cccc2NC(C)=O)C1

>  <enum_code>  (661) 
M

>  <parent_uuid>  (661) 
159e9a67-9ddd-4f06-8bc8-f63c27ed1469

>  <o3da_score>  (661) 
74.620288329434771

>  <o3da_score_rel>  (661) 
0.2970742098598429

>  <o3da_align>  (661) 
0.52298407783731993

>  <RMSD>  (661) 
0.042948902215410471

>  <CONVERGED>  (661) 
0

>  <ENERGY>  (661) 
18.369310737295958

$$$$
448e4648-f26c-4dce-8bd7-6c39fe65a344
     RDKit          3D

 16 17  0  0  0  0  0  0  0  0999 V2000
   -6.6307   28.7065    5.9271 C   0  0  0  0  0  0  0  0  0  0  0  0
   -6.0369   28.3746    4.5708 C   0  0  0  0  0  0  0  0  0  0  0  0
   -4.6092   27.9012    4.6473 N   0  0  0  0  0  4  0  0  0  0  0  0
   -3.6367   28.8942    5.2239 C   0  0  0  0  0  0  0  0  0  0  0  0
   -2.2077   28.4711    4.8772 C   0  0  0  0  0  0  0  0  0  0  0  0
   -1.9139   27.0009    5.1090 C   0  0  0  0  0  0  0  0  0  0  0  0
   -2.9956   26.1007    5.2965 C   0  0  0  0  0  0  0  0  0  0  0  0
   -2.7423   24.7409    5.5198 C   0  0  0  0  0  0  0  0  0  0  0  0
   -1.4389   24.2662    5.5278 C   0  0  0  0  0  0  0  0  0  0  0  0
   -0.3740   25.1402    5.3122 C   0  0  0  0  0  0  0  0  0  0  0  0
   -0.5847   26.5065    5.0947 C   0  0  0  0  0  0  0  0  0  0  0  0
    0.4898   27.3980    4.8482 N   0  0  0  0  0  0  0  0  0  0  0  0
    1.8471   27.1060    4.8366 C   0  0  0  0  0  0  0  0  0  0  0  0
    2.6863   28.3199    4.5213 C   0  0  0  0  0  0  0  0  0  0  0  0
    2.3717   26.0250    5.0704 O   0  0  0  0  0  0  0  0  0  0  0  0
   -4.4291   26.5648    5.3156 C   0  0  0  0  0  0  0  0  0  0  0  0
  1  2  1  0
  2  3  1  0
  3  4  1  0
  4  5  1  0
  5  6  1  0
  6  7  2  0
  7  8  1  0
  8  9  2  0
  9 10  1  0
 10 11  2  0
 11 12  1  0
 12 13  1  0
 13 14  1  0
 13 15  2  0
  7 16  1  0
 16  3  1  0
 11  6  1  0
M  CHG  1   3   1
M  END
>  <Energy>  (662) 
19.292394824147607

>  <Energy_Delta>  (662) 
0.96829821984248099

>  <std_smi>  (662) 
CCN1CCc2c(cccc2NC(C)=O)C1

>  <enum_smi>  (662) 
CC[NH+]1CCc2c(cccc2NC(C)=O)C1

>  <enum_code>  (662) 
M

>  <parent_uuid>  (662) 
159e9a67-9ddd-4f06-8bc8-f63c27ed1469

>  <o3da_score>  (662) 
65.360566733188037

>  <o3da_score_rel>  (662) 
0.26020991278579858

>  <o3da_align>  (662) 
0.36486478118477

>  <RMSD>  (662) 
0.044008271531586894

>  <CONVERGED>  (662) 
0

>  <ENERGY>  (662) 
19.295075123777988

$$$$
448e4648-f26c-4dce-8bd7-6c39fe65a344
     RDKit          3D

 16 17  0  0  0  0  0  0  0  0999 V2000
   -6.1286   28.6080    3.1336 C   0  0  0  0  0  0  0  0  0  0  0  0
   -6.0474   28.3697    4.6299 C   0  0  0  0  0  0  0  0  0  0  0  0
   -4.6864   27.9130    5.0854 N   0  0  0  0  0  4  0  0  0  0  0  0
   -3.5660   28.8824    4.8228 C   0  0  0  0  0  0  0  0  0  0  0  0
   -2.3506   28.5020    5.6713 C   0  0  0  0  0  0  0  0  0  0  0  0
   -2.0078   27.0243    5.6524 C   0  0  0  0  0  0  0  0  0  0  0  0
   -2.9635   26.0989    5.1563 C   0  0  0  0  0  0  0  0  0  0  0  0
   -2.6613   24.7311    5.1253 C   0  0  0  0  0  0  0  0  0  0  0  0
   -1.4428   24.2750    5.6060 C   0  0  0  0  0  0  0  0  0  0  0  0
   -0.5134   25.1755    6.1254 C   0  0  0  0  0  0  0  0  0  0  0  0
   -0.7748   26.5497    6.1683 C   0  0  0  0  0  0  0  0  0  0  0  0
    0.1544   27.4702    6.7155 N   0  0  0  0  0  0  0  0  0  0  0  0
    1.3895   27.1902    7.2845 C   0  0  0  0  0  0  0  0  0  0  0  0
    2.0954   28.4391    7.7531 C   0  0  0  0  0  0  0  0  0  0  0  0
    1.8964   26.0873    7.4435 O   0  0  0  0  0  0  0  0  0  0  0  0
   -4.2952   26.5409    4.6069 C   0  0  0  0  0  0  0  0  0  0  0  0
  1  2  1  0
  2  3  1  0
  3  4  1  0
  4  5  1  0
  5  6  1  0
  6  7  2  0
  7  8  1  0
  8  9  2  0
  9 10  1  0
 10 11  2  0
 11 12  1  0
 12 13  1  0
 13 14  1  0
 13 15  2  0
  7 16  1  0
 16  3  1  0
 11  6  1  0
M  CHG  1   3   1
M  END
>  <Energy>  (663) 
19.295075123883692

>  <Energy_Delta>  (663) 
0.97097851957856562

>  <std_smi>  (663) 
CCN1CCc2c(cccc2NC(C)=O)C1

>  <enum_smi>  (663) 
CC[NH+]1CCc2c(cccc2NC(C)=O)C1

>  <enum_code>  (663) 
M

>  <parent_uuid>  (663) 
159e9a67-9ddd-4f06-8bc8-f63c27ed1469

>  <o3da_score>  (663) 
68.042633786850161

>  <o3da_score_rel>  (663) 
0.27088761141971684

>  <o3da_align>  (663) 
0.15989967701549068

>  <RMSD>  (663) 
0.044022603790426572

>  <CONVERGED>  (663) 
0

>  <ENERGY>  (663) 
19.292394821655865

$$$$
448e4648-f26c-4dce-8bd7-6c39fe65a344
     RDKit          3D

 16 17  0  0  0  0  0  0  0  0999 V2000
   -4.9555   26.5934    7.0786 C   0  0  0  0  0  0  0  0  0  0  0  0
   -5.6691   27.3141    5.9500 C   0  0  0  0  0  0  0  0  0  0  0  0
   -4.7283   27.8895    4.9243 N   0  0  0  0  0  4  0  0  0  0  0  0
   -3.7662   28.9214    5.4471 C   0  0  0  0  0  0  0  0  0  0  0  0
   -3.1680   29.7036    4.2758 C   0  0  0  0  0  0  0  0  0  0  0  0
   -2.6996   28.8425    3.1179 C   0  0  0  0  0  0  0  0  0  0  0  0
   -3.1194   27.4878    3.0495 C   0  0  0  0  0  0  0  0  0  0  0  0
   -2.6911   26.6761    1.9909 C   0  0  0  0  0  0  0  0  0  0  0  0
   -1.8826   27.2002    0.9930 C   0  0  0  0  0  0  0  0  0  0  0  0
   -1.4945   28.5388    1.0371 C   0  0  0  0  0  0  0  0  0  0  0  0
   -1.8960   29.3805    2.0805 C   0  0  0  0  0  0  0  0  0  0  0  0
   -1.5253   30.7484    2.1217 N   0  0  0  0  0  0  0  0  0  0  0  0
   -0.7713   31.4503    1.1909 C   0  0  0  0  0  0  0  0  0  0  0  0
   -0.5826   32.8947    1.5855 C   0  0  0  0  0  0  0  0  0  0  0  0
   -0.3062   31.0216    0.1428 O   0  0  0  0  0  0  0  0  0  0  0  0
   -3.9834   26.8630    4.1142 C   0  0  0  0  0  0  0  0  0  0  0  0
  1  2  1  0
  2  3  1  0
  3  4  1  0
  4  5  1  0
  5  6  1  0
  6  7  2  0
  7  8  1  0
  8  9  2  0
  9 10  1  0
 10 11  2  0
 11 12  1  0
 12 13  1  0
 13 14  1  0
 13 15  2  0
  7 16  1  0
 16  3  1  0
 11  6  1  0
M  CHG  1   3   1
M  END
>  <Energy>  (664) 
19.295075124271676

>  <Energy_Delta>  (664) 
0.97097851996655038

>  <std_smi>  (664) 
CCN1CCc2c(cccc2NC(C)=O)C1

>  <enum_smi>  (664) 
CC[NH+]1CCc2c(cccc2NC(C)=O)C1

>  <enum_code>  (664) 
M

>  <parent_uuid>  (664) 
159e9a67-9ddd-4f06-8bc8-f63c27ed1469

>  <o3da_score>  (664) 
67.412844599965524

>  <o3da_score_rel>  (664) 
0.26838032916095583

>  <o3da_align>  (664) 
0.57280346462384046

>  <RMSD>  (664) 
0.044028717661888962

>  <CONVERGED>  (664) 
0

>  <ENERGY>  (664) 
19.292394821680066

$$$$
448e4648-f26c-4dce-8bd7-6c39fe65a344
     RDKit          3D

 16 17  0  0  0  0  0  0  0  0999 V2000
   -2.1199   30.4907    3.8397 C   0  0  0  0  0  0  0  0  0  0  0  0
   -3.0539   29.3017    3.7103 C   0  0  0  0  0  0  0  0  0  0  0  0
   -3.7211   28.9942    5.0340 N   0  0  0  0  0  4  0  0  0  0  0  0
   -2.8156   28.5427    6.1510 C   0  0  0  0  0  0  0  0  0  0  0  0
   -2.1583   27.1982    5.8358 C   0  0  0  0  0  0  0  0  0  0  0  0
   -3.0951   26.1588    5.2502 C   0  0  0  0  0  0  0  0  0  0  0  0
   -4.3700   26.5666    4.7784 C   0  0  0  0  0  0  0  0  0  0  0  0
   -5.2495   25.6209    4.2357 C   0  0  0  0  0  0  0  0  0  0  0  0
   -4.8660   24.2919    4.1302 C   0  0  0  0  0  0  0  0  0  0  0  0
   -3.6030   23.8907    4.5642 C   0  0  0  0  0  0  0  0  0  0  0  0
   -2.6999   24.8031    5.1210 C   0  0  0  0  0  0  0  0  0  0  0  0
   -1.4056   24.4101    5.5455 N   0  0  0  0  0  0  0  0  0  0  0  0
   -0.8543   23.1362    5.5149 C   0  0  0  0  0  0  0  0  0  0  0  0
    0.5548   23.1157    6.0544 C   0  0  0  0  0  0  0  0  0  0  0  0
   -1.3942   22.1067    5.1316 O   0  0  0  0  0  0  0  0  0  0  0  0
   -4.8421   27.9916    4.8902 C   0  0  0  0  0  0  0  0  0  0  0  0
  1  2  1  0
  2  3  1  0
  3  4  1  0
  4  5  1  0
  5  6  1  0
  6  7  2  0
  7  8  1  0
  8  9  2  0
  9 10  1  0
 10 11  2  0
 11 12  1  0
 12 13  1  0
 13 14  1  0
 13 15  2  0
  7 16  1  0
 16  3  1  0
 11  6  1  0
M  CHG  1   3   1
M  END
>  <Energy>  (665) 
20.148946976259555

>  <Energy_Delta>  (665) 
1.8248503719544296

>  <std_smi>  (665) 
CCN1CCc2c(cccc2NC(C)=O)C1

>  <enum_smi>  (665) 
CC[NH+]1CCc2c(cccc2NC(C)=O)C1

>  <enum_code>  (665) 
M

>  <parent_uuid>  (665) 
159e9a67-9ddd-4f06-8bc8-f63c27ed1469

>  <o3da_score>  (665) 
74.72835722451704

>  <o3da_score_rel>  (665) 
0.29750444783313046

>  <o3da_align>  (665) 
0.18563840328378953

>  <RMSD>  (665) 
0.042448541530490831

>  <CONVERGED>  (665) 
0

>  <ENERGY>  (665) 
20.162086739866819

$$$$
448e4648-f26c-4dce-8bd7-6c39fe65a344
     RDKit          3D

 16 17  0  0  0  0  0  0  0  0999 V2000
   -7.0965   27.4161    4.4276 C   0  0  0  0  0  0  0  0  0  0  0  0
   -5.9565   28.4170    4.3652 C   0  0  0  0  0  0  0  0  0  0  0  0
   -4.7185   27.8530    5.0293 N   0  0  0  0  0  4  0  0  0  0  0  0
   -3.7536   28.9080    5.5085 C   0  0  0  0  0  0  0  0  0  0  0  0
   -3.1481   29.6853    4.3384 C   0  0  0  0  0  0  0  0  0  0  0  0
   -2.6852   28.8224    3.1808 C   0  0  0  0  0  0  0  0  0  0  0  0
   -3.1097   27.4699    3.1174 C   0  0  0  0  0  0  0  0  0  0  0  0
   -2.6929   26.6560    2.0559 C   0  0  0  0  0  0  0  0  0  0  0  0
   -1.8911   27.1766    1.0508 C   0  0  0  0  0  0  0  0  0  0  0  0
   -1.4977   28.5137    1.0909 C   0  0  0  0  0  0  0  0  0  0  0  0
   -1.8878   29.3571    2.1372 C   0  0  0  0  0  0  0  0  0  0  0  0
   -1.5101   30.7231    2.1764 N   0  0  0  0  0  0  0  0  0  0  0  0
   -0.7736   31.4256    1.2323 C   0  0  0  0  0  0  0  0  0  0  0  0
   -0.5615   32.8652    1.6325 C   0  0  0  0  0  0  0  0  0  0  0  0
   -0.3412   31.0014    0.1685 O   0  0  0  0  0  0  0  0  0  0  0  0
   -3.9643   26.8501    4.1910 C   0  0  0  0  0  0  0  0  0  0  0  0
  1  2  1  0
  2  3  1  0
  3  4  1  0
  4  5  1  0
  5  6  1  0
  6  7  2  0
  7  8  1  0
  8  9  2  0
  9 10  1  0
 10 11  2  0
 11 12  1  0
 12 13  1  0
 13 14  1  0
 13 15  2  0
  7 16  1  0
 16  3  1  0
 11  6  1  0
M  CHG  1   3   1
M  END
>  <Energy>  (666) 
20.233840787307599

>  <Energy_Delta>  (666) 
1.9097441830024735

>  <std_smi>  (666) 
CCN1CCc2c(cccc2NC(C)=O)C1

>  <enum_smi>  (666) 
CC[NH+]1CCc2c(cccc2NC(C)=O)C1

>  <enum_code>  (666) 
M

>  <parent_uuid>  (666) 
159e9a67-9ddd-4f06-8bc8-f63c27ed1469

>  <o3da_score>  (666) 
76.166234352166612

>  <o3da_score_rel>  (666) 
0.30322884559592417

>  <o3da_align>  (666) 
0.56374273134839159

>  <RMSD>  (666) 
6.2760719136581206e-05

>  <CONVERGED>  (666) 
0

>  <ENERGY>  (666) 
20.23384078663026

$$$$
448e4648-f26c-4dce-8bd7-6c39fe65a344
     RDKit          3D

 16 17  0  0  0  0  0  0  0  0999 V2000
   -2.2189   30.6528    3.4969 C   0  0  0  0  0  0  0  0  0  0  0  0
   -3.0547   29.3949    3.6540 C   0  0  0  0  0  0  0  0  0  0  0  0
   -3.4269   29.1834    5.1059 N   0  0  0  0  0  4  0  0  0  0  0  0
   -4.6602   28.3372    5.2987 C   0  0  0  0  0  0  0  0  0  0  0  0
   -4.4316   26.9003    4.8271 C   0  0  0  0  0  0  0  0  0  0  0  0
   -3.1191   26.2906    5.2791 C   0  0  0  0  0  0  0  0  0  0  0  0
   -2.1073   27.1403    5.7964 C   0  0  0  0  0  0  0  0  0  0  0  0
   -0.8881   26.5962    6.2211 C   0  0  0  0  0  0  0  0  0  0  0  0
   -0.6556   25.2332    6.1091 C   0  0  0  0  0  0  0  0  0  0  0  0
   -1.6346   24.3977    5.5725 C   0  0  0  0  0  0  0  0  0  0  0  0
   -2.8684   24.9013    5.1458 C   0  0  0  0  0  0  0  0  0  0  0  0
   -3.8611   24.0642    4.5766 N   0  0  0  0  0  0  0  0  0  0  0  0
   -3.8051   22.6895    4.3905 C   0  0  0  0  0  0  0  0  0  0  0  0
   -5.0600   22.1531    3.7464 C   0  0  0  0  0  0  0  0  0  0  0  0
   -2.8923   21.9378    4.7067 O   0  0  0  0  0  0  0  0  0  0  0  0
   -2.3151   28.6228    5.9585 C   0  0  0  0  0  0  0  0  0  0  0  0
  1  2  1  0
  2  3  1  0
  3  4  1  0
  4  5  1  0
  5  6  1  0
  6  7  2  0
  7  8  1  0
  8  9  2  0
  9 10  1  0
 10 11  2  0
 11 12  1  0
 12 13  1  0
 13 14  1  0
 13 15  2  0
  7 16  1  0
 16  3  1  0
 11  6  1  0
M  CHG  1   3   1
M  END
>  <Energy>  (667) 
20.233840788320368

>  <Energy_Delta>  (667) 
1.909744184015242

>  <std_smi>  (667) 
CCN1CCc2c(cccc2NC(C)=O)C1

>  <enum_smi>  (667) 
CC[NH+]1CCc2c(cccc2NC(C)=O)C1

>  <enum_code>  (667) 
M

>  <parent_uuid>  (667) 
159e9a67-9ddd-4f06-8bc8-f63c27ed1469

>  <o3da_score>  (667) 
73.191413575699883

>  <o3da_score_rel>  (667) 
0.29138565185561138

>  <o3da_align>  (667) 
0.38867018678562582

>  <RMSD>  (667) 
0.043916631714342742

>  <CONVERGED>  (667) 
0

>  <ENERGY>  (667) 
20.244349548864424

$$$$
448e4648-f26c-4dce-8bd7-6c39fe65a344
     RDKit          3D

 16 17  0  0  0  0  0  0  0  0999 V2000
   -6.1404   28.6606    3.0014 C   0  0  0  0  0  0  0  0  0  0  0  0
   -5.9894   28.3611    4.4792 C   0  0  0  0  0  0  0  0  0  0  0  0
   -4.6052   27.9460    4.9135 N   0  0  0  0  0  4  0  0  0  0  0  0
   -3.5945   29.0370    5.1232 C   0  0  0  0  0  0  0  0  0  0  0  0
   -2.9757   29.5421    3.8224 C   0  0  0  0  0  0  0  0  0  0  0  0
   -2.6446   28.4700    2.8055 C   0  0  0  0  0  0  0  0  0  0  0  0
   -3.1613   27.1624    2.9845 C   0  0  0  0  0  0  0  0  0  0  0  0
   -2.8589   26.1592    2.0532 C   0  0  0  0  0  0  0  0  0  0  0  0
   -2.0799   26.4474    0.9423 C   0  0  0  0  0  0  0  0  0  0  0  0
   -1.5948   27.7391    0.7453 C   0  0  0  0  0  0  0  0  0  0  0  0
   -1.8692   28.7664    1.6547 C   0  0  0  0  0  0  0  0  0  0  0  0
   -1.3978   30.0884    1.4525 N   0  0  0  0  0  0  0  0  0  0  0  0
   -0.6544   30.5690    0.3832 C   0  0  0  0  0  0  0  0  0  0  0  0
   -0.3378   32.0376    0.5262 C   0  0  0  0  0  0  0  0  0  0  0  0
   -0.2873   29.9425   -0.6023 O   0  0  0  0  0  0  0  0  0  0  0  0
   -3.9978   26.7837    4.1758 C   0  0  0  0  0  0  0  0  0  0  0  0
  1  2  1  0
  2  3  1  0
  3  4  1  0
  4  5  1  0
  5  6  1  0
  6  7  2  0
  7  8  1  0
  8  9  2  0
  9 10  1  0
 10 11  2  0
 11 12  1  0
 12 13  1  0
 13 14  1  0
 13 15  2  0
  7 16  1  0
 16  3  1  0
 11  6  1  0
M  CHG  1   3   1
M  END
>  <Energy>  (668) 
24.158734679734852

>  <Energy_Delta>  (668) 
5.8346380754297265

>  <std_smi>  (668) 
CCN1CCc2c(cccc2NC(C)=O)C1

>  <enum_smi>  (668) 
CC[NH+]1CCc2c(cccc2NC(C)=O)C1

>  <enum_code>  (668) 
M

>  <parent_uuid>  (668) 
159e9a67-9ddd-4f06-8bc8-f63c27ed1469

>  <o3da_score>  (668) 
77.43199913559846

>  <o3da_score_rel>  (668) 
0.30826803910917278

>  <o3da_align>  (668) 
0.35420487944051715

>  <RMSD>  (668) 
6.2279752162208349e-05

>  <CONVERGED>  (668) 
0

>  <ENERGY>  (668) 
24.15873467613623

$$$$
cf183151-a3f9-4e16-9f3b-758a388eb19e
     RDKit          3D

 16 17  0  0  0  0  0  0  0  0999 V2000
   -7.6755   22.3358    2.6091 C   0  0  0  0  0  0  0  0  0  0  0  0
   -7.0273   23.6100    3.0894 C   0  0  0  0  0  0  0  0  0  0  0  0
   -7.6200   24.6815    3.0275 O   0  0  0  0  0  0  0  0  0  0  0  0
   -5.7638   23.3996    3.6036 N   0  0  0  0  0  0  0  0  0  0  0  0
   -4.8837   24.3610    4.1430 C   0  0  0  0  0  0  0  0  0  0  0  0
   -5.1546   25.7312    4.2381 C   0  0  0  0  0  0  0  0  0  0  0  0
   -4.2135   26.6277    4.7967 C   0  0  0  0  0  0  0  0  0  0  0  0
   -2.9807   26.1758    5.2724 C   0  0  0  0  0  0  0  0  0  0  0  0
   -2.7297   24.8237    5.1688 C   0  0  0  0  0  0  0  0  0  0  0  0
   -3.6503   23.9461    4.6220 C   0  0  0  0  0  0  0  0  0  0  0  0
   -3.0605   22.6094    4.6748 C   0  0  0  0  0  0  0  0  0  0  0  0
   -3.6340   21.6088    4.2827 O   0  0  0  0  0  0  0  0  0  0  0  0
   -1.8210   22.7473    5.2303 N   0  0  0  0  0  0  0  0  0  0  0  0
   -0.9156   21.6554    5.4896 C   0  0  0  0  0  0  0  0  0  0  0  0
   -1.5582   24.0460    5.5692 C   0  0  0  0  0  0  0  0  0  0  0  0
   -0.5730   24.5166    6.1037 O   0  0  0  0  0  0  0  0  0  0  0  0
  1  2  1  0
  2  3  2  0
  2  4  1  0
  4  5  1  0
  5  6  2  0
  6  7  1  0
  7  8  2  0
  8  9  1  0
  9 10  2  0
 10 11  1  0
 11 12  2  0
 11 13  1  0
 13 14  1  0
 13 15  1  0
 15 16  2  0
 10  5  1  0
 15  9  1  0
M  END
>  <Energy>  (669) 
-24.500527499105655

>  <Energy_Delta>  (669) 
0

>  <std_smi>  (669) 
CC(=O)Nc1cccc2c1C(=O)N(C)C2=O

>  <enum_smi>  (669) 
CC(=O)Nc1cccc2c1C(=O)N(C)C2=O

>  <enum_code>  (669) 
B

>  <o3da_score>  (669) 
76.865858992218179

>  <o3da_score_rel>  (669) 
0.30601415294054629

>  <o3da_align>  (669) 
0.22846168254525859

>  <RMSD>  (669) 
0.016206520656829919

>  <CONVERGED>  (669) 
0

>  <ENERGY>  (669) 
-24.500096130205328

$$$$
0df02028-69e3-4b85-aa75-2f61d6133169
     RDKit          3D

 16 17  0  0  0  0  0  0  0  0999 V2000
    0.5187   25.2217    5.0509 C   0  0  0  0  0  0  0  0  0  0  0  0
   -0.4717   25.0749    5.9317 C   0  0  0  0  0  0  0  0  0  0  0  0
   -0.3676   25.6941    7.1452 O   0  0  0  0  0  0  0  0  0  0  0  0
   -1.5280   24.2587    5.6739 N   0  0  0  0  0  0  0  0  0  0  0  0
   -2.6596   24.7717    5.2721 C   0  0  0  0  0  0  0  0  0  0  0  0
   -3.6573   23.7932    4.7283 C   0  0  0  0  0  0  0  0  0  0  0  0
   -4.7862   24.2138    4.1396 C   0  0  0  0  0  0  0  0  0  0  0  0
   -5.1891   25.5985    4.1348 C   0  0  0  0  0  0  0  0  0  0  0  0
   -4.3597   26.5110    4.6502 C   0  0  0  0  0  0  0  0  0  0  0  0
   -4.8250   27.8167    5.1537 C   0  0  0  0  0  0  0  0  0  0  0  0
   -5.8087   28.4158    4.7648 O   0  0  0  0  0  0  0  0  0  0  0  0
   -4.0075   28.0901    6.2134 N   0  0  0  0  0  0  0  0  0  0  0  0
   -4.3570   29.0723    7.2100 C   0  0  0  0  0  0  0  0  0  0  0  0
   -3.1789   27.0211    6.4748 C   0  0  0  0  0  0  0  0  0  0  0  0
   -2.7211   26.7202    7.5690 O   0  0  0  0  0  0  0  0  0  0  0  0
   -2.9923   26.2530    5.1904 C   0  0  1  0  0  0  0  0  0  0  0  0
  1  2  2  3
  2  3  1  0
  2  4  1  0
  4  5  2  3
  5  6  1  0
  6  7  2  0
  7  8  1  0
  8  9  2  0
  9 10  1  0
 10 11  2  0
 10 12  1  0
 12 13  1  0
 12 14  1  0
 14 15  2  0
 16 14  1  1
 16  5  1  0
 16  9  1  0
M  END
>  <Energy>  (670) 
-63.708956985823143

>  <Energy_Delta>  (670) 
0

>  <std_smi>  (670) 
CC(=O)Nc1cccc2c1C(=O)N(C)C2=O

>  <enum_smi>  (670) 
C=C(O)N=C1C=CC=C2C(=O)N(C)C(=O)C21

>  <enum_code>  (670) 
T

>  <parent_uuid>  (670) 
cf183151-a3f9-4e16-9f3b-758a388eb19e

>  <o3da_score>  (670) 
68.216861884942475

>  <o3da_score_rel>  (670) 
0.27158123879284696

>  <o3da_align>  (670) 
0.18928492952073062

>  <RMSD>  (670) 
7.0874910403679554e-05

>  <CONVERGED>  (670) 
0

>  <ENERGY>  (670) 
-63.708956985874408

$$$$
0df02028-69e3-4b85-aa75-2f61d6133169
     RDKit          3D

 16 17  0  0  0  0  0  0  0  0999 V2000
   -0.4308   24.8760    7.4849 C   0  0  0  0  0  0  0  0  0  0  0  0
   -0.5789   25.0730    6.1744 C   0  0  0  0  0  0  0  0  0  0  0  0
    0.2223   25.9896    5.5542 O   0  0  0  0  0  0  0  0  0  0  0  0
   -1.4449   24.3224    5.4430 N   0  0  0  0  0  0  0  0  0  0  0  0
   -2.6122   24.8106    5.1206 C   0  0  0  0  0  0  0  0  0  0  0  0
   -3.6030   23.8203    4.5856 C   0  0  0  0  0  0  0  0  0  0  0  0
   -4.8801   24.1685    4.3719 C   0  0  0  0  0  0  0  0  0  0  0  0
   -5.3418   25.5302    4.4825 C   0  0  0  0  0  0  0  0  0  0  0  0
   -4.4880   26.4657    4.9092 C   0  0  0  0  0  0  0  0  0  0  0  0
   -4.6550   27.8979    4.5996 C   0  0  0  0  0  0  0  0  0  0  0  0
   -5.7130   28.4579    4.3883 O   0  0  0  0  0  0  0  0  0  0  0  0
   -3.3814   28.3731    4.4633 N   0  0  0  0  0  0  0  0  0  0  0  0
   -3.1026   29.6205    3.7955 C   0  0  0  0  0  0  0  0  0  0  0  0
   -2.4694   27.3432    4.5363 C   0  0  0  0  0  0  0  0  0  0  0  0
   -1.3772   27.3130    3.9852 O   0  0  0  0  0  0  0  0  0  0  0  0
   -3.0827   26.2369    5.3575 C   0  0  2  0  0  0  0  0  0  0  0  0
  1  2  2  3
  2  3  1  0
  2  4  1  0
  4  5  2  3
  5  6  1  0
  6  7  2  0
  7  8  1  0
  8  9  2  0
  9 10  1  0
 10 11  2  0
 10 12  1  0
 12 13  1  0
 12 14  1  0
 14 15  2  0
 16 14  1  6
 16  5  1  0
 16  9  1  0
M  END
>  <Energy>  (671) 
-63.70895698542342

>  <Energy_Delta>  (671) 
3.9972292142920196e-10

>  <std_smi>  (671) 
CC(=O)Nc1cccc2c1C(=O)N(C)C2=O

>  <enum_smi>  (671) 
C=C(O)N=C1C=CC=C2C(=O)N(C)C(=O)C21

>  <enum_code>  (671) 
T

>  <parent_uuid>  (671) 
cf183151-a3f9-4e16-9f3b-758a388eb19e

>  <o3da_score>  (671) 
77.720700836518375

>  <o3da_score_rel>  (671) 
0.30941740252770228

>  <o3da_align>  (671) 
0.34969549559012753

>  <RMSD>  (671) 
6.1277749331280568e-05

>  <CONVERGED>  (671) 
0

>  <ENERGY>  (671) 
-63.708956985822986

$$$$
0df02028-69e3-4b85-aa75-2f61d6133169
     RDKit          3D

 16 17  0  0  0  0  0  0  0  0999 V2000
   -3.1108   29.3797    3.6982 C   0  0  0  0  0  0  0  0  0  0  0  0
   -3.8175   29.0151    4.7683 C   0  0  0  0  0  0  0  0  0  0  0  0
   -3.9027   29.8520    5.8443 O   0  0  0  0  0  0  0  0  0  0  0  0
   -4.5499   27.8739    4.8302 N   0  0  0  0  0  0  0  0  0  0  0  0
   -3.9533   26.7619    5.1349 C   0  0  0  0  0  0  0  0  0  0  0  0
   -2.4994   26.6120    5.5291 C   0  0  0  0  0  0  0  0  0  0  0  0
   -1.9187   25.4051    5.4314 C   0  0  0  0  0  0  0  0  0  0  0  0
   -2.6106   24.2745    4.8564 C   0  0  0  0  0  0  0  0  0  0  0  0
   -3.9403   24.3392    4.7340 C   0  0  0  0  0  0  0  0  0  0  0  0
   -4.7599   23.4254    3.9264 C   0  0  0  0  0  0  0  0  0  0  0  0
   -4.3918   22.3486    3.4967 O   0  0  0  0  0  0  0  0  0  0  0  0
   -5.9441   24.0699    3.7328 N   0  0  0  0  0  0  0  0  0  0  0  0
   -6.9897   23.5738    2.8716 C   0  0  0  0  0  0  0  0  0  0  0  0
   -5.9927   25.3105    4.3306 C   0  0  0  0  0  0  0  0  0  0  0  0
   -6.9206   26.1003    4.2219 O   0  0  0  0  0  0  0  0  0  0  0  0
   -4.7765   25.4831    5.2055 C   0  0  2  0  0  0  0  0  0  0  0  0
  1  2  2  3
  2  3  1  0
  2  4  1  0
  4  5  2  3
  5  6  1  0
  6  7  2  0
  7  8  1  0
  8  9  2  0
  9 10  1  0
 10 11  2  0
 10 12  1  0
 12 13  1  0
 12 14  1  0
 14 15  2  0
 16 14  1  6
 16  5  1  0
 16  9  1  0
M  END
>  <Energy>  (672) 
-63.563540049365571

>  <Energy_Delta>  (672) 
0.14541693645757192

>  <std_smi>  (672) 
CC(=O)Nc1cccc2c1C(=O)N(C)C2=O

>  <enum_smi>  (672) 
C=C(O)N=C1C=CC=C2C(=O)N(C)C(=O)C21

>  <enum_code>  (672) 
T

>  <parent_uuid>  (672) 
cf183151-a3f9-4e16-9f3b-758a388eb19e

>  <o3da_score>  (672) 
75.080816347566881

>  <o3da_score_rel>  (672) 
0.29890763881284987

>  <o3da_align>  (672) 
0.59292143327352653

>  <RMSD>  (672) 
6.3103052050097572e-05

>  <CONVERGED>  (672) 
0

>  <ENERGY>  (672) 
-63.563540049487074

$$$$
0df02028-69e3-4b85-aa75-2f61d6133169
     RDKit          3D

 16 17  0  0  0  0  0  0  0  0999 V2000
   -1.9561   28.1144    3.3845 C   0  0  0  0  0  0  0  0  0  0  0  0
   -2.2270   27.5244    4.5490 C   0  0  0  0  0  0  0  0  0  0  0  0
   -1.6267   27.9691    5.6924 O   0  0  0  0  0  0  0  0  0  0  0  0
   -3.0149   26.4255    4.6677 N   0  0  0  0  0  0  0  0  0  0  0  0
   -4.3032   26.5797    4.7124 C   0  0  0  0  0  0  0  0  0  0  0  0
   -5.0399   27.9018    4.7379 C   0  0  0  0  0  0  0  0  0  0  0  0
   -6.3361   27.9326    4.3877 C   0  0  0  0  0  0  0  0  0  0  0  0
   -7.0134   26.7609    3.8820 C   0  0  0  0  0  0  0  0  0  0  0  0
   -6.4489   25.5655    4.0819 C   0  0  0  0  0  0  0  0  0  0  0  0
   -6.8395   24.3225    3.4026 C   0  0  0  0  0  0  0  0  0  0  0  0
   -7.8792   24.1536    2.7942 O   0  0  0  0  0  0  0  0  0  0  0  0
   -5.7851   23.4741    3.5569 N   0  0  0  0  0  0  0  0  0  0  0  0
   -5.7022   22.1824    2.9201 C   0  0  0  0  0  0  0  0  0  0  0  0
   -4.7424   24.0257    4.2691 C   0  0  0  0  0  0  0  0  0  0  0  0
   -3.6639   23.4807    4.4597 O   0  0  0  0  0  0  0  0  0  0  0  0
   -5.1854   25.3463    4.8471 C   0  0  1  0  0  0  0  0  0  0  0  0
  1  2  2  3
  2  3  1  0
  2  4  1  0
  4  5  2  3
  5  6  1  0
  6  7  2  0
  7  8  1  0
  8  9  2  0
  9 10  1  0
 10 11  2  0
 10 12  1  0
 12 13  1  0
 12 14  1  0
 14 15  2  0
 16 14  1  6
 16  5  1  0
 16  9  1  0
M  END
>  <Energy>  (673) 
-63.563540049037734

>  <Energy_Delta>  (673) 
0.14541693678540923

>  <std_smi>  (673) 
CC(=O)Nc1cccc2c1C(=O)N(C)C2=O

>  <enum_smi>  (673) 
C=C(O)N=C1C=CC=C2C(=O)N(C)C(=O)C21

>  <enum_code>  (673) 
T

>  <parent_uuid>  (673) 
cf183151-a3f9-4e16-9f3b-758a388eb19e

>  <o3da_score>  (673) 
68.092910023924091

>  <o3da_score_rel>  (673) 
0.27108776842443821

>  <o3da_align>  (673) 
0.5332756320249773

>  <RMSD>  (673) 
7.4729678458837378e-05

>  <CONVERGED>  (673) 
0

>  <ENERGY>  (673) 
-63.56354004951168

$$$$
0df02028-69e3-4b85-aa75-2f61d6133169
     RDKit          3D

 16 17  0  0  0  0  0  0  0  0999 V2000
   -1.6164   32.4946    3.1416 C   0  0  0  0  0  0  0  0  0  0  0  0
   -1.6392   31.2148    2.7693 C   0  0  0  0  0  0  0  0  0  0  0  0
   -1.2944   30.8707    1.4933 O   0  0  0  0  0  0  0  0  0  0  0  0
   -1.9019   30.1978    3.6279 N   0  0  0  0  0  0  0  0  0  0  0  0
   -3.1216   29.7671    3.7460 C   0  0  0  0  0  0  0  0  0  0  0  0
   -4.3352   30.3407    3.0485 C   0  0  0  0  0  0  0  0  0  0  0  0
   -5.5007   29.6756    3.0706 C   0  0  0  0  0  0  0  0  0  0  0  0
   -5.6193   28.3555    3.6388 C   0  0  0  0  0  0  0  0  0  0  0  0
   -4.6212   27.8937    4.3973 C   0  0  0  0  0  0  0  0  0  0  0  0
   -4.4515   26.4838    4.7780 C   0  0  0  0  0  0  0  0  0  0  0  0
   -5.3188   25.6326    4.7267 O   0  0  0  0  0  0  0  0  0  0  0  0
   -3.1332   26.3501    5.0946 N   0  0  0  0  0  0  0  0  0  0  0  0
   -2.5059   25.0706    5.3190 C   0  0  0  0  0  0  0  0  0  0  0  0
   -2.4187   27.5137    4.9034 C   0  0  0  0  0  0  0  0  0  0  0  0
   -1.1983   27.5860    4.8989 O   0  0  0  0  0  0  0  0  0  0  0  0
   -3.3923   28.6592    4.7583 C   0  0  1  0  0  0  0  0  0  0  0  0
  1  2  2  3
  2  3  1  0
  2  4  1  0
  4  5  2  3
  5  6  1  0
  6  7  2  0
  7  8  1  0
  8  9  2  0
  9 10  1  0
 10 11  2  0
 10 12  1  0
 12 13  1  0
 12 14  1  0
 14 15  2  0
 16 14  1  6
 16  5  1  0
 16  9  1  0
M  END
>  <Energy>  (674) 
-63.395244114093764

>  <Energy_Delta>  (674) 
0.31371287172937912

>  <std_smi>  (674) 
CC(=O)Nc1cccc2c1C(=O)N(C)C2=O

>  <enum_smi>  (674) 
C=C(O)N=C1C=CC=C2C(=O)N(C)C(=O)C21

>  <enum_code>  (674) 
T

>  <parent_uuid>  (674) 
cf183151-a3f9-4e16-9f3b-758a388eb19e

>  <o3da_score>  (674) 
73.126036601441442

>  <o3da_score_rel>  (674) 
0.2911253766220836

>  <o3da_align>  (674) 
0.48530435991507193

>  <RMSD>  (674) 
6.092796001938624e-05

>  <CONVERGED>  (674) 
0

>  <ENERGY>  (674) 
-63.39524411415492

$$$$
0df02028-69e3-4b85-aa75-2f61d6133169
     RDKit          3D

 16 17  0  0  0  0  0  0  0  0999 V2000
   -3.4805   29.4793    6.0363 C   0  0  0  0  0  0  0  0  0  0  0  0
   -3.7245   28.8653    4.8785 C   0  0  0  0  0  0  0  0  0  0  0  0
   -3.0877   29.2766    3.7423 O   0  0  0  0  0  0  0  0  0  0  0  0
   -4.6591   27.8921    4.7384 N   0  0  0  0  0  0  0  0  0  0  0  0
   -4.3029   26.6489    4.8604 C   0  0  0  0  0  0  0  0  0  0  0  0
   -2.9181   26.1549    5.2164 C   0  0  0  0  0  0  0  0  0  0  0  0
   -2.6156   24.8533    5.0919 C   0  0  0  0  0  0  0  0  0  0  0  0
   -3.5329   23.9055    4.5090 C   0  0  0  0  0  0  0  0  0  0  0  0
   -4.8063   24.2709    4.3367 C   0  0  0  0  0  0  0  0  0  0  0  0
   -5.7683   23.5537    3.4870 C   0  0  0  0  0  0  0  0  0  0  0  0
   -5.6412   22.4103    3.0921 O   0  0  0  0  0  0  0  0  0  0  0  0
   -6.7370   24.4638    3.1885 N   0  0  0  0  0  0  0  0  0  0  0  0
   -7.7615   24.2242    2.2016 C   0  0  0  0  0  0  0  0  0  0  0  0
   -6.4732   25.7130    3.7093 C   0  0  0  0  0  0  0  0  0  0  0  0
   -7.0648   26.7354    3.3942 O   0  0  0  0  0  0  0  0  0  0  0  0
   -5.3867   25.5819    4.7502 C   0  0  2  0  0  0  0  0  0  0  0  0
  1  2  2  3
  2  3  1  0
  2  4  1  0
  4  5  2  3
  5  6  1  0
  6  7  2  0
  7  8  1  0
  8  9  2  0
  9 10  1  0
 10 11  2  0
 10 12  1  0
 12 13  1  0
 12 14  1  0
 14 15  2  0
 16 14  1  6
 16  5  1  0
 16  9  1  0
M  END
>  <Energy>  (675) 
-63.395244113957581

>  <Energy_Delta>  (675) 
0.31371287186556174

>  <std_smi>  (675) 
CC(=O)Nc1cccc2c1C(=O)N(C)C2=O

>  <enum_smi>  (675) 
C=C(O)N=C1C=CC=C2C(=O)N(C)C(=O)C21

>  <enum_code>  (675) 
T

>  <parent_uuid>  (675) 
cf183151-a3f9-4e16-9f3b-758a388eb19e

>  <o3da_score>  (675) 
76.119211244976299

>  <o3da_score_rel>  (675) 
0.30304163977393583

>  <o3da_align>  (675) 
0.3115831743102726

>  <RMSD>  (675) 
6.5359747660371543e-05

>  <CONVERGED>  (675) 
0

>  <ENERGY>  (675) 
-63.395244114164214

$$$$
0df02028-69e3-4b85-aa75-2f61d6133169
     RDKit          3D

 16 17  0  0  0  0  0  0  0  0999 V2000
   -5.7243   23.4624    3.8693 C   0  0  0  0  0  0  0  0  0  0  0  0
   -5.1918   24.5830    3.3861 C   0  0  0  0  0  0  0  0  0  0  0  0
   -4.6224   24.5818    2.1423 O   0  0  0  0  0  0  0  0  0  0  0  0
   -5.3001   25.7803    4.0148 N   0  0  0  0  0  0  0  0  0  0  0  0
   -4.2419   26.2870    4.5924 C   0  0  0  0  0  0  0  0  0  0  0  0
   -4.4102   27.6920    5.0930 C   0  0  0  0  0  0  0  0  0  0  0  0
   -3.3686   28.3893    5.5670 C   0  0  0  0  0  0  0  0  0  0  0  0
   -2.0700   27.7980    5.7633 C   0  0  0  0  0  0  0  0  0  0  0  0
   -1.8675   26.5397    5.3623 C   0  0  0  0  0  0  0  0  0  0  0  0
   -0.7759   25.7018    5.8872 C   0  0  0  0  0  0  0  0  0  0  0  0
    0.2692   26.1126    6.3535 O   0  0  0  0  0  0  0  0  0  0  0  0
   -1.2648   24.4293    5.8493 N   0  0  0  0  0  0  0  0  0  0  0  0
   -0.6532   23.3511    6.5865 C   0  0  0  0  0  0  0  0  0  0  0  0
   -2.5898   24.4137    5.4621 C   0  0  0  0  0  0  0  0  0  0  0  0
   -3.3873   23.5361    5.7528 O   0  0  0  0  0  0  0  0  0  0  0  0
   -2.8517   25.6631    4.6557 C   0  0  1  0  0  0  0  0  0  0  0  0
  1  2  2  3
  2  3  1  0
  2  4  1  0
  4  5  2  3
  5  6  1  0
  6  7  2  0
  7  8  1  0
  8  9  2  0
  9 10  1  0
 10 11  2  0
 10 12  1  0
 12 13  1  0
 12 14  1  0
 14 15  2  0
 16 14  1  1
 16  5  1  0
 16  9  1  0
M  END
>  <Energy>  (676) 
-61.864729189915252

>  <Energy_Delta>  (676) 
1.8442277959078908

>  <std_smi>  (676) 
CC(=O)Nc1cccc2c1C(=O)N(C)C2=O

>  <enum_smi>  (676) 
C=C(O)N=C1C=CC=C2C(=O)N(C)C(=O)C21

>  <enum_code>  (676) 
T

>  <parent_uuid>  (676) 
cf183151-a3f9-4e16-9f3b-758a388eb19e

>  <o3da_score>  (676) 
73.901187442381584

>  <o3da_score_rel>  (676) 
0.29421136474608889

>  <o3da_align>  (676) 
0.60176270490878359

>  <RMSD>  (676) 
0.26270750622708533

>  <CONVERGED>  (676) 
0

>  <ENERGY>  (676) 
-61.551994635199868

$$$$
0df02028-69e3-4b85-aa75-2f61d6133169
     RDKit          3D

 16 17  0  0  0  0  0  0  0  0999 V2000
   -4.6157   29.8434    6.3186 C   0  0  0  0  0  0  0  0  0  0  0  0
   -4.9418   29.2671    5.1635 C   0  0  0  0  0  0  0  0  0  0  0  0
   -6.0250   29.7202    4.4615 O   0  0  0  0  0  0  0  0  0  0  0  0
   -4.3276   28.1502    4.6986 N   0  0  0  0  0  0  0  0  0  0  0  0
   -3.5154   28.2554    3.6792 C   0  0  0  0  0  0  0  0  0  0  0  0
   -3.0350   26.9481    3.1198 C   0  0  0  0  0  0  0  0  0  0  0  0
   -2.3233   26.8982    1.9855 C   0  0  0  0  0  0  0  0  0  0  0  0
   -1.8523   28.0843    1.3178 C   0  0  0  0  0  0  0  0  0  0  0  0
   -2.2248   29.2787    1.7867 C   0  0  0  0  0  0  0  0  0  0  0  0
   -1.4858   30.5175    1.4892 C   0  0  0  0  0  0  0  0  0  0  0  0
   -0.7871   30.7068    0.5123 O   0  0  0  0  0  0  0  0  0  0  0  0
   -1.6608   31.3005    2.5919 N   0  0  0  0  0  0  0  0  0  0  0  0
   -0.8285   32.4482    2.8569 C   0  0  0  0  0  0  0  0  0  0  0  0
   -2.3370   30.6213    3.5856 C   0  0  0  0  0  0  0  0  0  0  0  0
   -2.2528   30.8714    4.7778 O   0  0  0  0  0  0  0  0  0  0  0  0
   -3.1541   29.5338    2.9302 C   0  0  2  0  0  0  0  0  0  0  0  0
  1  2  2  3
  2  3  1  0
  2  4  1  0
  4  5  2  3
  5  6  1  0
  6  7  2  0
  7  8  1  0
  8  9  2  0
  9 10  1  0
 10 11  2  0
 10 12  1  0
 12 13  1  0
 12 14  1  0
 14 15  2  0
 16 14  1  1
 16  5  1  0
 16  9  1  0
M  END
>  <Energy>  (677) 
-61.864729189467631

>  <Energy_Delta>  (677) 
1.8442277963555114

>  <std_smi>  (677) 
CC(=O)Nc1cccc2c1C(=O)N(C)C2=O

>  <enum_smi>  (677) 
C=C(O)N=C1C=CC=C2C(=O)N(C)C(=O)C21

>  <enum_code>  (677) 
T

>  <parent_uuid>  (677) 
cf183151-a3f9-4e16-9f3b-758a388eb19e

>  <o3da_score>  (677) 
64.136463899038844

>  <o3da_score_rel>  (677) 
0.25533658154595373

>  <o3da_align>  (677) 
0.43902908388092515

>  <RMSD>  (677) 
0.26270038596078071

>  <CONVERGED>  (677) 
0

>  <ENERGY>  (677) 
-61.551994635193239

$$$$
6383f7e7-de7d-496e-b03c-cb593f71844c
     RDKit          3D

 16 17  0  0  0  0  0  0  0  0999 V2000
   -7.1667   24.0218    1.8533 C   0  0  0  0  0  0  0  0  0  0  0  0
   -6.9589   23.7712    3.1457 C   0  0  0  0  0  0  0  0  0  0  0  0
   -8.0053   23.8171    4.0234 O   0  0  0  0  0  0  0  0  0  0  0  0
   -5.7514   23.3900    3.6366 N   0  0  0  0  0  0  0  0  0  0  0  0
   -4.9668   24.3143    4.1087 C   0  0  0  0  0  0  0  0  0  0  0  0
   -5.2217   25.7990    4.2211 C   0  0  0  0  0  0  0  0  0  0  0  0
   -4.3054   26.6318    4.7518 C   0  0  0  0  0  0  0  0  0  0  0  0
   -3.0187   26.1786    5.2484 C   0  0  0  0  0  0  0  0  0  0  0  0
   -2.7221   24.8793    5.1772 C   0  0  0  0  0  0  0  0  0  0  0  0
   -1.4986   24.1353    5.5948 C   0  0  0  0  0  0  0  0  0  0  0  0
   -0.5035   24.6078    6.1068 O   0  0  0  0  0  0  0  0  0  0  0  0
   -1.8020   22.8131    5.2498 N   0  0  0  0  0  0  0  0  0  0  0  0
   -0.9148   21.6991    5.4546 C   0  0  0  0  0  0  0  0  0  0  0  0
   -3.0533   22.7199    4.6857 C   0  0  0  0  0  0  0  0  0  0  0  0
   -3.5471   21.5231    4.2710 O   0  0  0  0  0  0  0  0  0  0  0  0
   -3.6395   23.9197    4.6249 C   0  0  0  0  0  0  0  0  0  0  0  0
  1  2  2  3
  2  3  1  0
  2  4  1  0
  4  5  2  3
  5  6  1  0
  6  7  2  0
  7  8  1  0
  8  9  2  0
  9 10  1  0
 10 11  2  0
 10 12  1  0
 12 13  1  0
 12 14  1  0
 14 15  1  0
 14 16  2  0
 16  5  1  0
 16  9  1  0
M  END
>  <Energy>  (678) 
-35.063593542148503

>  <Energy_Delta>  (678) 
0

>  <std_smi>  (678) 
CC(=O)Nc1cccc2c1C(=O)N(C)C2=O

>  <enum_smi>  (678) 
C=C(O)N=C1C=CC=C2C(=O)N(C)C(O)=C21

>  <enum_code>  (678) 
T

>  <parent_uuid>  (678) 
cf183151-a3f9-4e16-9f3b-758a388eb19e

>  <o3da_score>  (678) 
76.765984712640673

>  <o3da_score_rel>  (678) 
0.30561653892222701

>  <o3da_align>  (678) 
0.20362290644240547

>  <RMSD>  (678) 
7.0624235439121466e-05

>  <CONVERGED>  (678) 
0

>  <ENERGY>  (678) 
-35.063593542164504

$$$$
6383f7e7-de7d-496e-b03c-cb593f71844c
     RDKit          3D

 16 17  0  0  0  0  0  0  0  0999 V2000
   -8.0657   23.7067    3.9101 C   0  0  0  0  0  0  0  0  0  0  0  0
   -6.9654   23.7689    3.1605 C   0  0  0  0  0  0  0  0  0  0  0  0
   -7.0559   24.1499    1.8514 O   0  0  0  0  0  0  0  0  0  0  0  0
   -5.7424   23.3931    3.6160 N   0  0  0  0  0  0  0  0  0  0  0  0
   -4.9668   24.3144    4.1086 C   0  0  0  0  0  0  0  0  0  0  0  0
   -5.2243   25.7981    4.2270 C   0  0  0  0  0  0  0  0  0  0  0  0
   -4.3062   26.6316    4.7534 C   0  0  0  0  0  0  0  0  0  0  0  0
   -3.0167   26.1793    5.2440 C   0  0  0  0  0  0  0  0  0  0  0  0
   -2.7214   24.8795    5.1757 C   0  0  0  0  0  0  0  0  0  0  0  0
   -1.5002   24.1347    5.5985 C   0  0  0  0  0  0  0  0  0  0  0  0
   -0.5017   24.6084    6.1028 O   0  0  0  0  0  0  0  0  0  0  0  0
   -1.8107   22.8101    5.2697 N   0  0  0  0  0  0  0  0  0  0  0  0
   -0.9323   21.6929    5.4947 C   0  0  0  0  0  0  0  0  0  0  0  0
   -3.0640   22.7161    4.7103 C   0  0  0  0  0  0  0  0  0  0  0  0
   -3.5691   21.5154    4.3212 O   0  0  0  0  0  0  0  0  0  0  0  0
   -3.6420   23.9189    4.6305 C   0  0  0  0  0  0  0  0  0  0  0  0
  1  2  2  3
  2  3  1  0
  2  4  1  0
  4  5  2  3
  5  6  1  0
  6  7  2  0
  7  8  1  0
  8  9  2  0
  9 10  1  0
 10 11  2  0
 10 12  1  0
 12 13  1  0
 12 14  1  0
 14 15  1  0
 14 16  2  0
 16  5  1  0
 16  9  1  0
M  END
>  <Energy>  (679) 
-35.063593542098317

>  <Energy_Delta>  (679) 
5.0185633426735876e-11

>  <std_smi>  (679) 
CC(=O)Nc1cccc2c1C(=O)N(C)C2=O

>  <enum_smi>  (679) 
C=C(O)N=C1C=CC=C2C(=O)N(C)C(O)=C21

>  <enum_code>  (679) 
T

>  <parent_uuid>  (679) 
cf183151-a3f9-4e16-9f3b-758a388eb19e

>  <o3da_score>  (679) 
76.75446892832143

>  <o3da_score_rel>  (679) 
0.30557069291165612

>  <o3da_align>  (679) 
0.20382406509540305

>  <RMSD>  (679) 
5.0028149400526268e-05

>  <CONVERGED>  (679) 
0

>  <ENERGY>  (679) 
-35.063593542165208

$$$$
6383f7e7-de7d-496e-b03c-cb593f71844c
     RDKit          3D

 16 17  0  0  0  0  0  0  0  0999 V2000
   -3.7929   29.4121    6.2534 C   0  0  0  0  0  0  0  0  0  0  0  0
   -3.7869   28.9104    5.0194 C   0  0  0  0  0  0  0  0  0  0  0  0
   -2.9699   29.4462    4.0630 O   0  0  0  0  0  0  0  0  0  0  0  0
   -4.5889   27.9006    4.6282 N   0  0  0  0  0  0  0  0  0  0  0  0
   -4.1580   26.6755    4.6765 C   0  0  0  0  0  0  0  0  0  0  0  0
   -5.2103   25.6434    4.3524 C   0  0  0  0  0  0  0  0  0  0  0  0
   -5.0147   24.3274    4.5252 C   0  0  0  0  0  0  0  0  0  0  0  0
   -3.7625   23.7978    5.0046 C   0  0  0  0  0  0  0  0  0  0  0  0
   -2.7480   24.6364    5.2245 C   0  0  0  0  0  0  0  0  0  0  0  0
   -1.3666   24.2701    5.6207 C   0  0  0  0  0  0  0  0  0  0  0  0
   -0.9554   23.1591    5.8890 O   0  0  0  0  0  0  0  0  0  0  0  0
   -0.7071   25.4906    5.5741 N   0  0  0  0  0  0  0  0  0  0  0  0
    0.6975   25.6515    5.8509 C   0  0  0  0  0  0  0  0  0  0  0  0
   -1.5562   26.5196    5.2175 C   0  0  0  0  0  0  0  0  0  0  0  0
   -1.0015   27.7512    5.0880 O   0  0  0  0  0  0  0  0  0  0  0  0
   -2.8190   26.0799    5.0346 C   0  0  0  0  0  0  0  0  0  0  0  0
  1  2  2  3
  2  3  1  0
  2  4  1  0
  4  5  2  3
  5  6  1  0
  6  7  2  0
  7  8  1  0
  8  9  2  0
  9 10  1  0
 10 11  2  0
 10 12  1  0
 12 13  1  0
 12 14  1  0
 14 15  1  0
 14 16  2  0
 16  5  1  0
 16  9  1  0
M  END
>  <Energy>  (680) 
-28.556004690012355

>  <Energy_Delta>  (680) 
6.5075888521361485

>  <std_smi>  (680) 
CC(=O)Nc1cccc2c1C(=O)N(C)C2=O

>  <enum_smi>  (680) 
C=C(O)N=C1C=CC=C2C(=O)N(C)C(O)=C21

>  <enum_code>  (680) 
T

>  <parent_uuid>  (680) 
cf183151-a3f9-4e16-9f3b-758a388eb19e

>  <o3da_score>  (680) 
76.390928896093328

>  <o3da_score_rel>  (680) 
0.30412338722248761

>  <o3da_align>  (680) 
0.32934329211022068

>  <RMSD>  (680) 
6.3586731191100503e-05

>  <CONVERGED>  (680) 
0

>  <ENERGY>  (680) 
-28.556004690125924

$$$$
6383f7e7-de7d-496e-b03c-cb593f71844c
     RDKit          3D

 16 17  0  0  0  0  0  0  0  0999 V2000
   -3.0229   29.4803    3.9139 C   0  0  0  0  0  0  0  0  0  0  0  0
   -3.7182   28.9096    4.8964 C   0  0  0  0  0  0  0  0  0  0  0  0
   -3.6016   29.3694    6.1787 O   0  0  0  0  0  0  0  0  0  0  0  0
   -4.5881   27.9001    4.6964 N   0  0  0  0  0  0  0  0  0  0  0  0
   -4.1931   26.6691    4.8286 C   0  0  0  0  0  0  0  0  0  0  0  0
   -5.2296   25.6475    4.4291 C   0  0  0  0  0  0  0  0  0  0  0  0
   -4.9553   24.3388    4.3194 C   0  0  0  0  0  0  0  0  0  0  0  0
   -3.6480   23.8054    4.6107 C   0  0  0  0  0  0  0  0  0  0  0  0
   -2.6999   24.6289    5.0619 C   0  0  0  0  0  0  0  0  0  0  0  0
   -1.3361   24.2506    5.5051 C   0  0  0  0  0  0  0  0  0  0  0  0
   -0.8326   23.1464    5.4530 O   0  0  0  0  0  0  0  0  0  0  0  0
   -0.8360   25.4492    5.9947 N   0  0  0  0  0  0  0  0  0  0  0  0
    0.4724   25.5897    6.5811 C   0  0  0  0  0  0  0  0  0  0  0  0
   -1.7481   26.4777    5.8639 C   0  0  0  0  0  0  0  0  0  0  0  0
   -1.3814   27.6855    6.3621 O   0  0  0  0  0  0  0  0  0  0  0  0
   -2.8833   26.0608    5.2647 C   0  0  0  0  0  0  0  0  0  0  0  0
  1  2  2  3
  2  3  1  0
  2  4  1  0
  4  5  2  3
  5  6  1  0
  6  7  2  0
  7  8  1  0
  8  9  2  0
  9 10  1  0
 10 11  2  0
 10 12  1  0
 12 13  1  0
 12 14  1  0
 14 15  1  0
 14 16  2  0
 16  5  1  0
 16  9  1  0
M  END
>  <Energy>  (681) 
-28.556004689202723

>  <Energy_Delta>  (681) 
6.5075888529457799

>  <std_smi>  (681) 
CC(=O)Nc1cccc2c1C(=O)N(C)C2=O

>  <enum_smi>  (681) 
C=C(O)N=C1C=CC=C2C(=O)N(C)C(O)=C21

>  <enum_code>  (681) 
T

>  <parent_uuid>  (681) 
cf183151-a3f9-4e16-9f3b-758a388eb19e

>  <o3da_score>  (681) 
77.797148201817279

>  <o3da_score_rel>  (681) 
0.30972175059644436

>  <o3da_align>  (681) 
0.23449601224421648

>  <RMSD>  (681) 
7.2372508506409348e-05

>  <CONVERGED>  (681) 
0

>  <ENERGY>  (681) 
-28.55600469012494

$$$$
e2efbdaf-d4f6-4fa0-b4da-aa76b45d2cd7
     RDKit          3D

 16 17  0  0  0  0  0  0  0  0999 V2000
   -2.9414   29.4431    4.1332 C   0  0  0  0  0  0  0  0  0  0  0  0
   -3.7940   28.8696    4.9826 C   0  0  0  0  0  0  0  0  0  0  0  0
   -3.8920   29.3311    6.2645 O   0  0  0  0  0  0  0  0  0  0  0  0
   -4.6586   27.8884    4.6213 N   0  0  0  0  0  0  0  0  0  0  0  0
   -4.2733   26.6505    4.6835 C   0  0  0  0  0  0  0  0  0  0  0  0
   -2.9263   26.1518    5.1500 C   0  0  0  0  0  0  0  0  0  0  0  0
   -2.6041   24.8469    5.1388 C   0  0  0  0  0  0  0  0  0  0  0  0
   -3.5225   23.7492    4.6785 C   0  0  0  0  0  0  0  0  0  0  0  0
   -4.8340   24.2924    4.2739 C   0  0  0  0  0  0  0  0  0  0  0  0
   -5.2016   25.5758    4.2707 C   0  0  0  0  0  0  0  0  0  0  0  0
   -6.5994   25.6415    3.8224 C   0  0  0  0  0  0  0  0  0  0  0  0
   -7.2966   26.6368    3.7565 O   0  0  0  0  0  0  0  0  0  0  0  0
   -6.9681   24.3618    3.5296 N   0  0  0  0  0  0  0  0  0  0  0  0
   -8.2897   23.9799    3.0992 C   0  0  0  0  0  0  0  0  0  0  0  0
   -5.9682   23.4926    3.8188 C   0  0  0  0  0  0  0  0  0  0  0  0
   -5.9629   22.2778    3.7474 O   0  0  0  0  0  0  0  0  0  0  0  0
  1  2  2  3
  2  3  1  0
  2  4  1  0
  4  5  2  3
  5  6  1  0
  6  7  2  0
  7  8  1  0
  8  9  1  0
  9 10  2  0
 10 11  1  0
 11 12  2  0
 11 13  1  0
 13 14  1  0
 13 15  1  0
 15 16  2  0
 10  5  1  0
 15  9  1  0
M  END
>  <Energy>  (682) 
-96.387004738522904

>  <Energy_Delta>  (682) 
0

>  <std_smi>  (682) 
CC(=O)Nc1cccc2c1C(=O)N(C)C2=O

>  <enum_smi>  (682) 
C=C(O)N=C1C=CCC2=C1C(=O)N(C)C2=O

>  <enum_code>  (682) 
T

>  <parent_uuid>  (682) 
cf183151-a3f9-4e16-9f3b-758a388eb19e

>  <o3da_score>  (682) 
77.361931125871095

>  <o3da_score_rel>  (682) 
0.30798908818185511

>  <o3da_align>  (682) 
0.31747604713547956

>  <RMSD>  (682) 
6.5219575537979878e-05

>  <CONVERGED>  (682) 
0

>  <ENERGY>  (682) 
-96.387004738694912

$$$$
e2efbdaf-d4f6-4fa0-b4da-aa76b45d2cd7
     RDKit          3D

 16 17  0  0  0  0  0  0  0  0999 V2000
   -3.7040   29.2815    6.2782 C   0  0  0  0  0  0  0  0  0  0  0  0
   -3.7871   28.8623    5.0154 C   0  0  0  0  0  0  0  0  0  0  0  0
   -3.0580   29.4844    4.0421 O   0  0  0  0  0  0  0  0  0  0  0  0
   -4.6398   27.8887    4.6083 N   0  0  0  0  0  0  0  0  0  0  0  0
   -4.2533   26.6504    4.6501 C   0  0  0  0  0  0  0  0  0  0  0  0
   -2.9020   26.1462    5.0978 C   0  0  0  0  0  0  0  0  0  0  0  0
   -2.6081   24.8355    5.1461 C   0  0  0  0  0  0  0  0  0  0  0  0
   -3.5608   23.7368    4.7644 C   0  0  0  0  0  0  0  0  0  0  0  0
   -4.8470   24.2910    4.2984 C   0  0  0  0  0  0  0  0  0  0  0  0
   -5.1840   25.5809    4.2292 C   0  0  0  0  0  0  0  0  0  0  0  0
   -6.5445   25.6608    3.6797 C   0  0  0  0  0  0  0  0  0  0  0  0
   -7.1620   26.6742    3.4096 O   0  0  0  0  0  0  0  0  0  0  0  0
   -6.9614   24.3749    3.5009 N   0  0  0  0  0  0  0  0  0  0  0  0
   -8.2333   24.0097    2.9294 C   0  0  0  0  0  0  0  0  0  0  0  0
   -5.9740   23.4990    3.8125 C   0  0  0  0  0  0  0  0  0  0  0  0
   -5.9651   22.2862    3.7145 O   0  0  0  0  0  0  0  0  0  0  0  0
  1  2  2  3
  2  3  1  0
  2  4  1  0
  4  5  2  3
  5  6  1  0
  6  7  2  0
  7  8  1  0
  8  9  1  0
  9 10  2  0
 10 11  1  0
 11 12  2  0
 11 13  1  0
 13 14  1  0
 13 15  1  0
 15 16  2  0
 10  5  1  0
 15  9  1  0
M  END
>  <Energy>  (683) 
-96.387004738257573

>  <Energy_Delta>  (683) 
2.6533086838753661e-10

>  <std_smi>  (683) 
CC(=O)Nc1cccc2c1C(=O)N(C)C2=O

>  <enum_smi>  (683) 
C=C(O)N=C1C=CCC2=C1C(=O)N(C)C2=O

>  <enum_code>  (683) 
T

>  <parent_uuid>  (683) 
cf183151-a3f9-4e16-9f3b-758a388eb19e

>  <o3da_score>  (683) 
78.062885279932729

>  <o3da_score_rel>  (683) 
0.31077968851492421

>  <o3da_align>  (683) 
0.30072142127177315

>  <RMSD>  (683) 
6.93195612362019e-05

>  <CONVERGED>  (683) 
0

>  <ENERGY>  (683) 
-96.387004738690749

$$$$
e2efbdaf-d4f6-4fa0-b4da-aa76b45d2cd7
     RDKit          3D

 16 17  0  0  0  0  0  0  0  0999 V2000
   -2.0791   32.7580    5.7896 C   0  0  0  0  0  0  0  0  0  0  0  0
   -3.1610   32.5213    5.0460 C   0  0  0  0  0  0  0  0  0  0  0  0
   -4.0890   33.5091    4.8735 O   0  0  0  0  0  0  0  0  0  0  0  0
   -3.4809   31.2988    4.5568 N   0  0  0  0  0  0  0  0  0  0  0  0
   -2.8385   30.7980    3.5466 C   0  0  0  0  0  0  0  0  0  0  0  0
   -3.1995   29.3686    3.2387 C   0  0  0  0  0  0  0  0  0  0  0  0
   -2.4871   28.6090    2.3921 C   0  0  0  0  0  0  0  0  0  0  0  0
   -1.2877   29.1025    1.6379 C   0  0  0  0  0  0  0  0  0  0  0  0
   -1.1027   30.5555    1.8346 C   0  0  0  0  0  0  0  0  0  0  0  0
   -1.7890   31.3592    2.6561 C   0  0  0  0  0  0  0  0  0  0  0  0
   -1.3483   32.7334    2.3639 C   0  0  0  0  0  0  0  0  0  0  0  0
   -1.8782   33.7646    2.7321 O   0  0  0  0  0  0  0  0  0  0  0  0
   -0.2917   32.6367    1.5089 N   0  0  0  0  0  0  0  0  0  0  0  0
    0.3701   33.7717    0.9152 C   0  0  0  0  0  0  0  0  0  0  0  0
   -0.1523   31.3626    1.0738 C   0  0  0  0  0  0  0  0  0  0  0  0
    0.5764   30.9244    0.2035 O   0  0  0  0  0  0  0  0  0  0  0  0
  1  2  2  3
  2  3  1  0
  2  4  1  0
  4  5  2  3
  5  6  1  0
  6  7  2  0
  7  8  1  0
  8  9  1  0
  9 10  2  0
 10 11  1  0
 11 12  2  0
 11 13  1  0
 13 14  1  0
 13 15  1  0
 15 16  2  0
 10  5  1  0
 15  9  1  0
M  END
>  <Energy>  (684) 
-92.594906984220131

>  <Energy_Delta>  (684) 
3.7920977543027732

>  <std_smi>  (684) 
CC(=O)Nc1cccc2c1C(=O)N(C)C2=O

>  <enum_smi>  (684) 
C=C(O)N=C1C=CCC2=C1C(=O)N(C)C2=O

>  <enum_code>  (684) 
T

>  <parent_uuid>  (684) 
cf183151-a3f9-4e16-9f3b-758a388eb19e

>  <o3da_score>  (684) 
73.868920297569787

>  <o3da_score_rel>  (684) 
0.29408290455430997

>  <o3da_align>  (684) 
0.37525045234114435

>  <RMSD>  (684) 
0.53411933511631593

>  <CONVERGED>  (684) 
0

>  <ENERGY>  (684) 
-92.526257681000757

$$$$
e2efbdaf-d4f6-4fa0-b4da-aa76b45d2cd7
     RDKit          3D

 16 17  0  0  0  0  0  0  0  0999 V2000
   -1.7846   23.9781    5.6874 C   0  0  0  0  0  0  0  0  0  0  0  0
   -2.4297   24.0799    4.5259 C   0  0  0  0  0  0  0  0  0  0  0  0
   -1.7843   24.5792    3.4279 O   0  0  0  0  0  0  0  0  0  0  0  0
   -3.6661   23.5653    4.3325 N   0  0  0  0  0  0  0  0  0  0  0  0
   -4.7015   24.3464    4.2831 C   0  0  0  0  0  0  0  0  0  0  0  0
   -5.9842   23.6252    3.9597 C   0  0  0  0  0  0  0  0  0  0  0  0
   -7.1217   24.2671    3.6532 C   0  0  0  0  0  0  0  0  0  0  0  0
   -7.2524   25.7600    3.6287 C   0  0  0  0  0  0  0  0  0  0  0  0
   -6.0142   26.4067    4.1112 C   0  0  0  0  0  0  0  0  0  0  0  0
   -4.8574   25.8184    4.4424 C   0  0  0  0  0  0  0  0  0  0  0  0
   -3.9917   26.8804    4.9874 C   0  0  0  0  0  0  0  0  0  0  0  0
   -2.9424   26.7425    5.5869 O   0  0  0  0  0  0  0  0  0  0  0  0
   -4.6396   28.0628    4.7866 N   0  0  0  0  0  0  0  0  0  0  0  0
   -4.1544   29.3367    5.2565 C   0  0  0  0  0  0  0  0  0  0  0  0
   -5.9007   27.8430    4.3501 C   0  0  0  0  0  0  0  0  0  0  0  0
   -6.8092   28.6375    4.1954 O   0  0  0  0  0  0  0  0  0  0  0  0
  1  2  2  3
  2  3  1  0
  2  4  1  0
  4  5  2  3
  5  6  1  0
  6  7  2  0
  7  8  1  0
  8  9  1  0
  9 10  2  0
 10 11  1  0
 11 12  2  0
 11 13  1  0
 13 14  1  0
 13 15  1  0
 15 16  2  0
 10  5  1  0
 15  9  1  0
M  END
>  <Energy>  (685) 
-92.59490698402665

>  <Energy_Delta>  (685) 
3.792097754496254

>  <std_smi>  (685) 
CC(=O)Nc1cccc2c1C(=O)N(C)C2=O

>  <enum_smi>  (685) 
C=C(O)N=C1C=CCC2=C1C(=O)N(C)C2=O

>  <enum_code>  (685) 
T

>  <parent_uuid>  (685) 
cf183151-a3f9-4e16-9f3b-758a388eb19e

>  <o3da_score>  (685) 
83.165600109669327

>  <o3da_score_rel>  (685) 
0.33109433765554069

>  <o3da_align>  (685) 
0.55885807900455875

>  <RMSD>  (685) 
0.13459786252764169

>  <CONVERGED>  (685) 
0

>  <ENERGY>  (685) 
-92.079529469765504

$$$$
e2efbdaf-d4f6-4fa0-b4da-aa76b45d2cd7
     RDKit          3D

 16 17  0  0  0  0  0  0  0  0999 V2000
   -3.5166   29.1132    6.3443 C   0  0  0  0  0  0  0  0  0  0  0  0
   -3.7117   28.8674    5.0477 C   0  0  0  0  0  0  0  0  0  0  0  0
   -3.2142   29.7337    4.1157 O   0  0  0  0  0  0  0  0  0  0  0  0
   -4.5081   27.8734    4.5854 N   0  0  0  0  0  0  0  0  0  0  0  0
   -4.1189   26.6361    4.6266 C   0  0  0  0  0  0  0  0  0  0  0  0
   -5.1840   25.6455    4.2359 C   0  0  0  0  0  0  0  0  0  0  0  0
   -5.0522   24.3251    4.4366 C   0  0  0  0  0  0  0  0  0  0  0  0
   -3.8295   23.6907    5.0312 C   0  0  0  0  0  0  0  0  0  0  0  0
   -2.7538   24.6878    5.2127 C   0  0  0  0  0  0  0  0  0  0  0  0
   -2.8289   26.0101    5.0186 C   0  0  0  0  0  0  0  0  0  0  0  0
   -1.4607   26.5342    5.1644 C   0  0  0  0  0  0  0  0  0  0  0  0
   -1.0652   27.6414    4.8522 O   0  0  0  0  0  0  0  0  0  0  0  0
   -0.6893   25.5061    5.6168 N   0  0  0  0  0  0  0  0  0  0  0  0
    0.7376   25.5923    5.8047 C   0  0  0  0  0  0  0  0  0  0  0  0
   -1.3815   24.3437    5.5755 C   0  0  0  0  0  0  0  0  0  0  0  0
   -0.9856   23.2080    5.7601 O   0  0  0  0  0  0  0  0  0  0  0  0
  1  2  2  3
  2  3  1  0
  2  4  1  0
  4  5  2  3
  5  6  1  0
  6  7  2  0
  7  8  1  0
  8  9  1  0
  9 10  2  0
 10 11  1  0
 11 12  2  0
 11 13  1  0
 13 14  1  0
 13 15  1  0
 15 16  2  0
 10  5  1  0
 15  9  1  0
M  END
>  <Energy>  (686) 
-92.526257680870216

>  <Energy_Delta>  (686) 
3.8607470576526879

>  <std_smi>  (686) 
CC(=O)Nc1cccc2c1C(=O)N(C)C2=O

>  <enum_smi>  (686) 
C=C(O)N=C1C=CCC2=C1C(=O)N(C)C2=O

>  <enum_code>  (686) 
T

>  <parent_uuid>  (686) 
cf183151-a3f9-4e16-9f3b-758a388eb19e

>  <o3da_score>  (686) 
76.970927367282485

>  <o3da_score_rel>  (686) 
0.30643244540767917

>  <o3da_align>  (686) 
0.34158971467172333

>  <RMSD>  (686) 
5.3044785168855161e-05

>  <CONVERGED>  (686) 
0

>  <ENERGY>  (686) 
-92.526257681011089

$$$$
e2efbdaf-d4f6-4fa0-b4da-aa76b45d2cd7
     RDKit          3D

 16 17  0  0  0  0  0  0  0  0999 V2000
   -2.8304   29.2613    3.9580 C   0  0  0  0  0  0  0  0  0  0  0  0
   -3.7296   28.9205    4.8825 C   0  0  0  0  0  0  0  0  0  0  0  0
   -3.8975   29.7126    5.9830 O   0  0  0  0  0  0  0  0  0  0  0  0
   -4.6068   27.8985    4.7333 N   0  0  0  0  0  0  0  0  0  0  0  0
   -4.2171   26.6660    4.8471 C   0  0  0  0  0  0  0  0  0  0  0  0
   -5.2718   25.6540    4.4841 C   0  0  0  0  0  0  0  0  0  0  0  0
   -4.9963   24.3515    4.3137 C   0  0  0  0  0  0  0  0  0  0  0  0
   -3.6311   23.7576    4.4994 C   0  0  0  0  0  0  0  0  0  0  0  0
   -2.6890   24.7604    5.0387 C   0  0  0  0  0  0  0  0  0  0  0  0
   -2.9146   26.0648    5.2368 C   0  0  0  0  0  0  0  0  0  0  0  0
   -1.7361   26.5920    5.9448 C   0  0  0  0  0  0  0  0  0  0  0  0
   -1.6380   27.6710    6.4979 O   0  0  0  0  0  0  0  0  0  0  0  0
   -0.8054   25.5969    5.9593 N   0  0  0  0  0  0  0  0  0  0  0  0
    0.4625   25.6901    6.6393 C   0  0  0  0  0  0  0  0  0  0  0  0
   -1.3475   24.4378    5.5178 C   0  0  0  0  0  0  0  0  0  0  0  0
   -0.8734   23.3173    5.5253 O   0  0  0  0  0  0  0  0  0  0  0  0
  1  2  2  3
  2  3  1  0
  2  4  1  0
  4  5  2  3
  5  6  1  0
  6  7  2  0
  7  8  1  0
  8  9  1  0
  9 10  2  0
 10 11  1  0
 11 12  2  0
 11 13  1  0
 13 14  1  0
 13 15  1  0
 15 16  2  0
 10  5  1  0
 15  9  1  0
M  END
>  <Energy>  (687) 
-92.526257679414314

>  <Energy_Delta>  (687) 
3.86074705910859

>  <std_smi>  (687) 
CC(=O)Nc1cccc2c1C(=O)N(C)C2=O

>  <enum_smi>  (687) 
C=C(O)N=C1C=CCC2=C1C(=O)N(C)C2=O

>  <enum_code>  (687) 
T

>  <parent_uuid>  (687) 
cf183151-a3f9-4e16-9f3b-758a388eb19e

>  <o3da_score>  (687) 
77.757961115583981

>  <o3da_score_rel>  (687) 
0.30956574111242746

>  <o3da_align>  (687) 
0.29866046921054118

>  <RMSD>  (687) 
6.8079255285548204e-05

>  <CONVERGED>  (687) 
0

>  <ENERGY>  (687) 
-92.526257681011714

$$$$
e2efbdaf-d4f6-4fa0-b4da-aa76b45d2cd7
     RDKit          3D

 16 17  0  0  0  0  0  0  0  0999 V2000
   -6.8251   28.4307    5.4067 C   0  0  0  0  0  0  0  0  0  0  0  0
   -5.7871   28.3547    4.5736 C   0  0  0  0  0  0  0  0  0  0  0  0
   -5.8856   28.8737    3.3139 O   0  0  0  0  0  0  0  0  0  0  0  0
   -4.5761   27.8614    4.9355 N   0  0  0  0  0  0  0  0  0  0  0  0
   -4.3486   26.5894    4.8138 C   0  0  0  0  0  0  0  0  0  0  0  0
   -5.3061   25.5535    4.2747 C   0  0  0  0  0  0  0  0  0  0  0  0
   -4.9933   24.2472    4.2266 C   0  0  0  0  0  0  0  0  0  0  0  0
   -3.6830   23.6701    4.6855 C   0  0  0  0  0  0  0  0  0  0  0  0
   -2.7762   24.7324    5.1629 C   0  0  0  0  0  0  0  0  0  0  0  0
   -3.0391   26.0397    5.2266 C   0  0  0  0  0  0  0  0  0  0  0  0
   -1.8371   26.7154    5.7343 C   0  0  0  0  0  0  0  0  0  0  0  0
   -1.6764   27.9147    5.8641 O   0  0  0  0  0  0  0  0  0  0  0  0
   -0.9280   25.7335    5.9969 N   0  0  0  0  0  0  0  0  0  0  0  0
    0.4122   25.9779    6.4678 C   0  0  0  0  0  0  0  0  0  0  0  0
   -1.4109   24.5187    5.6361 C   0  0  0  0  0  0  0  0  0  0  0  0
   -0.8593   23.4345    5.6643 O   0  0  0  0  0  0  0  0  0  0  0  0
  1  2  2  3
  2  3  1  0
  2  4  1  0
  4  5  2  3
  5  6  1  0
  6  7  2  0
  7  8  1  0
  8  9  1  0
  9 10  2  0
 10 11  1  0
 11 12  2  0
 11 13  1  0
 13 14  1  0
 13 15  1  0
 15 16  2  0
 10  5  1  0
 15  9  1  0
M  END
>  <Energy>  (688) 
-91.868544960000918

>  <Energy_Delta>  (688) 
4.5184597785219864

>  <std_smi>  (688) 
CC(=O)Nc1cccc2c1C(=O)N(C)C2=O

>  <enum_smi>  (688) 
C=C(O)N=C1C=CCC2=C1C(=O)N(C)C2=O

>  <enum_code>  (688) 
T

>  <parent_uuid>  (688) 
cf183151-a3f9-4e16-9f3b-758a388eb19e

>  <o3da_score>  (688) 
70.928358616924271

>  <o3da_score_rel>  (688) 
0.28237610125216683

>  <o3da_align>  (688) 
0.31311541341588045

>  <RMSD>  (688) 
0.26497704217487805

>  <CONVERGED>  (688) 
0

>  <ENERGY>  (688) 
-96.387004738557252

$$$$
989500bb-1d21-466b-9589-af20a300c5bb
     RDKit          3D

 16 17  0  0  0  0  0  0  0  0999 V2000
   -2.9634   29.4703    4.1326 C   0  0  0  0  0  0  0  0  0  0  0  0
   -3.7883   28.8632    4.9855 C   0  0  0  0  0  0  0  0  0  0  0  0
   -3.8550   29.2831    6.2834 O   0  0  0  0  0  0  0  0  0  0  0  0
   -4.6578   27.8892    4.6161 N   0  0  0  0  0  0  0  0  0  0  0  0
   -4.2557   26.6498    4.6562 C   0  0  0  0  0  0  0  0  0  0  0  0
   -2.8374   26.2187    5.1084 C   0  0  0  0  0  0  0  0  0  0  0  0
   -2.5863   24.7326    5.0799 C   0  0  0  0  0  0  0  0  0  0  0  0
   -3.5072   23.8399    4.6903 C   0  0  0  0  0  0  0  0  0  0  0  0
   -4.7994   24.2972    4.2839 C   0  0  0  0  0  0  0  0  0  0  0  0
   -5.1853   25.5737    4.2567 C   0  0  0  0  0  0  0  0  0  0  0  0
   -6.5826   25.6173    3.8127 C   0  0  0  0  0  0  0  0  0  0  0  0
   -7.2861   26.6070    3.7303 O   0  0  0  0  0  0  0  0  0  0  0  0
   -6.9430   24.3307    3.5425 N   0  0  0  0  0  0  0  0  0  0  0  0
   -8.2627   23.9304    3.1229 C   0  0  0  0  0  0  0  0  0  0  0  0
   -5.9346   23.4721    3.8426 C   0  0  0  0  0  0  0  0  0  0  0  0
   -5.9297   22.2555    3.7884 O   0  0  0  0  0  0  0  0  0  0  0  0
  1  2  2  3
  2  3  1  0
  2  4  1  0
  4  5  2  3
  5  6  1  0
  6  7  1  0
  7  8  2  0
  8  9  1  0
  9 10  2  0
 10 11  1  0
 11 12  2  0
 11 13  1  0
 13 14  1  0
 13 15  1  0
 15 16  2  0
 10  5  1  0
 15  9  1  0
M  END
>  <Energy>  (689) 
-67.805632010538545

>  <Energy_Delta>  (689) 
0

>  <std_smi>  (689) 
CC(=O)Nc1cccc2c1C(=O)N(C)C2=O

>  <enum_smi>  (689) 
C=C(O)N=C1CC=CC2=C1C(=O)N(C)C2=O

>  <enum_code>  (689) 
T

>  <parent_uuid>  (689) 
cf183151-a3f9-4e16-9f3b-758a388eb19e

>  <o3da_score>  (689) 
74.891465401636509

>  <o3da_score_rel>  (689) 
0.29815380518518897

>  <o3da_align>  (689) 
0.32083106854806254

>  <RMSD>  (689) 
5.7463329190226505e-05

>  <CONVERGED>  (689) 
0

>  <ENERGY>  (689) 
-67.805632010602451

$$$$
989500bb-1d21-466b-9589-af20a300c5bb
     RDKit          3D

 16 17  0  0  0  0  0  0  0  0999 V2000
   -6.1193   29.5676    3.4713 C   0  0  0  0  0  0  0  0  0  0  0  0
   -5.9985   28.8817    4.6077 C   0  0  0  0  0  0  0  0  0  0  0  0
   -6.8039   29.1777    5.6702 O   0  0  0  0  0  0  0  0  0  0  0  0
   -5.0386   27.9452    4.8147 N   0  0  0  0  0  0  0  0  0  0  0  0
   -5.2988   26.7082    4.4960 C   0  0  0  0  0  0  0  0  0  0  0  0
   -6.6487   26.2389    3.8964 C   0  0  0  0  0  0  0  0  0  0  0  0
   -6.7348   24.7625    3.6048 C   0  0  0  0  0  0  0  0  0  0  0  0
   -5.7273   23.9088    3.8354 C   0  0  0  0  0  0  0  0  0  0  0  0
   -4.5049   24.4001    4.3905 C   0  0  0  0  0  0  0  0  0  0  0  0
   -4.2676   25.6728    4.7113 C   0  0  0  0  0  0  0  0  0  0  0  0
   -2.9161   25.7556    5.2753 C   0  0  0  0  0  0  0  0  0  0  0  0
   -2.3833   26.7475    5.7373 O   0  0  0  0  0  0  0  0  0  0  0  0
   -2.3910   24.4994    5.2074 N   0  0  0  0  0  0  0  0  0  0  0  0
   -1.0882   24.1382    5.7077 C   0  0  0  0  0  0  0  0  0  0  0  0
   -3.3043   23.6182    4.7246 C   0  0  0  0  0  0  0  0  0  0  0  0
   -3.2014   22.4121    4.5914 O   0  0  0  0  0  0  0  0  0  0  0  0
  1  2  2  3
  2  3  1  0
  2  4  1  0
  4  5  2  3
  5  6  1  0
  6  7  1  0
  7  8  2  0
  8  9  1  0
  9 10  2  0
 10 11  1  0
 11 12  2  0
 11 13  1  0
 13 14  1  0
 13 15  1  0
 15 16  2  0
 10  5  1  0
 15  9  1  0
M  END
>  <Energy>  (690) 
-67.805632009285105

>  <Energy_Delta>  (690) 
1.2534400184449623e-09

>  <std_smi>  (690) 
CC(=O)Nc1cccc2c1C(=O)N(C)C2=O

>  <enum_smi>  (690) 
C=C(O)N=C1CC=CC2=C1C(=O)N(C)C2=O

>  <enum_code>  (690) 
T

>  <parent_uuid>  (690) 
cf183151-a3f9-4e16-9f3b-758a388eb19e

>  <o3da_score>  (690) 
69.879077478573521

>  <o3da_score_rel>  (690) 
0.27819876058416748

>  <o3da_align>  (690) 
0.49994094400041822

>  <RMSD>  (690) 
7.1878357940751819e-05

>  <CONVERGED>  (690) 
0

>  <ENERGY>  (690) 
-67.805632010602906

$$$$
989500bb-1d21-466b-9589-af20a300c5bb
     RDKit          3D

 16 17  0  0  0  0  0  0  0  0999 V2000
   -2.8421   29.4088    4.2051 C   0  0  0  0  0  0  0  0  0  0  0  0
   -3.7137   28.8176    5.0220 C   0  0  0  0  0  0  0  0  0  0  0  0
   -3.8173   29.2294    6.3200 O   0  0  0  0  0  0  0  0  0  0  0  0
   -4.5944   27.8698    4.6127 N   0  0  0  0  0  0  0  0  0  0  0  0
   -4.2267   26.6199    4.6571 C   0  0  0  0  0  0  0  0  0  0  0  0
   -2.8380   26.1478    5.1576 C   0  0  0  0  0  0  0  0  0  0  0  0
   -2.6253   24.6558    5.1259 C   0  0  0  0  0  0  0  0  0  0  0  0
   -3.5544   23.7909    4.6952 C   0  0  0  0  0  0  0  0  0  0  0  0
   -4.8181   24.2854    4.2454 C   0  0  0  0  0  0  0  0  0  0  0  0
   -5.1690   25.5719    4.2147 C   0  0  0  0  0  0  0  0  0  0  0  0
   -6.5473   25.6560    3.7200 C   0  0  0  0  0  0  0  0  0  0  0  0
   -7.2209   26.6647    3.6201 O   0  0  0  0  0  0  0  0  0  0  0  0
   -6.9312   24.3815    3.4260 N   0  0  0  0  0  0  0  0  0  0  0  0
   -8.2446   24.0197    2.9548 C   0  0  0  0  0  0  0  0  0  0  0  0
   -5.9577   23.4942    3.7557 C   0  0  0  0  0  0  0  0  0  0  0  0
   -5.9828   22.2783    3.6916 O   0  0  0  0  0  0  0  0  0  0  0  0
  1  2  2  3
  2  3  1  0
  2  4  1  0
  4  5  2  3
  5  6  1  0
  6  7  1  0
  7  8  2  0
  8  9  1  0
  9 10  2  0
 10 11  1  0
 11 12  2  0
 11 13  1  0
 13 14  1  0
 13 15  1  0
 15 16  2  0
 10  5  1  0
 15  9  1  0
M  END
>  <Energy>  (691) 
-64.008935035433311

>  <Energy_Delta>  (691) 
3.7966969751052346

>  <std_smi>  (691) 
CC(=O)Nc1cccc2c1C(=O)N(C)C2=O

>  <enum_smi>  (691) 
C=C(O)N=C1CC=CC2=C1C(=O)N(C)C2=O

>  <enum_code>  (691) 
T

>  <parent_uuid>  (691) 
cf183151-a3f9-4e16-9f3b-758a388eb19e

>  <o3da_score>  (691) 
74.843664304345353

>  <o3da_score_rel>  (691) 
0.29796350207157046

>  <o3da_align>  (691) 
0.31972279345771687

>  <RMSD>  (691) 
0.23977540239275069

>  <CONVERGED>  (691) 
0

>  <ENERGY>  (691) 
-67.805632010603091

$$$$
989500bb-1d21-466b-9589-af20a300c5bb
     RDKit          3D

 16 17  0  0  0  0  0  0  0  0999 V2000
   -8.1105   23.6118    3.3001 C   0  0  0  0  0  0  0  0  0  0  0  0
   -6.8641   23.8877    2.9195 C   0  0  0  0  0  0  0  0  0  0  0  0
   -6.6374   24.4829    1.7083 O   0  0  0  0  0  0  0  0  0  0  0  0
   -5.7809   23.4775    3.6221 N   0  0  0  0  0  0  0  0  0  0  0  0
   -5.0618   24.3461    4.2637 C   0  0  0  0  0  0  0  0  0  0  0  0
   -3.7865   23.7522    4.9126 C   0  0  0  0  0  0  0  0  0  0  0  0
   -2.6670   24.7455    5.0728 C   0  0  0  0  0  0  0  0  0  0  0  0
   -2.8615   26.0681    4.9755 C   0  0  0  0  0  0  0  0  0  0  0  0
   -4.1860   26.5620    4.7495 C   0  0  0  0  0  0  0  0  0  0  0  0
   -5.2476   25.8111    4.4385 C   0  0  0  0  0  0  0  0  0  0  0  0
   -6.4161   26.7008    4.4251 C   0  0  0  0  0  0  0  0  0  0  0  0
   -7.5859   26.3656    4.4308 O   0  0  0  0  0  0  0  0  0  0  0  0
   -5.9437   27.9746    4.5326 N   0  0  0  0  0  0  0  0  0  0  0  0
   -6.7863   29.1393    4.6409 C   0  0  0  0  0  0  0  0  0  0  0  0
   -4.6203   27.9649    4.8291 C   0  0  0  0  0  0  0  0  0  0  0  0
   -3.9024   28.8987    5.1384 O   0  0  0  0  0  0  0  0  0  0  0  0
  1  2  2  3
  2  3  1  0
  2  4  1  0
  4  5  2  3
  5  6  1  0
  6  7  1  0
  7  8  2  0
  8  9  1  0
  9 10  2  0
 10 11  1  0
 11 12  2  0
 11 13  1  0
 13 14  1  0
 13 15  1  0
 15 16  2  0
 10  5  1  0
 15  9  1  0
M  END
>  <Energy>  (692) 
-62.616230668063579

>  <Energy_Delta>  (692) 
5.1894013424749659

>  <std_smi>  (692) 
CC(=O)Nc1cccc2c1C(=O)N(C)C2=O

>  <enum_smi>  (692) 
C=C(O)N=C1CC=CC2=C1C(=O)N(C)C2=O

>  <enum_code>  (692) 
T

>  <parent_uuid>  (692) 
cf183151-a3f9-4e16-9f3b-758a388eb19e

>  <o3da_score>  (692) 
75.540490286704184

>  <o3da_score_rel>  (692) 
0.3007376675532844

>  <o3da_align>  (692) 
0.22638362317931732

>  <RMSD>  (692) 
0.14822259098914728

>  <CONVERGED>  (692) 
0

>  <ENERGY>  (692) 
-61.995051578222672

$$$$
989500bb-1d21-466b-9589-af20a300c5bb
     RDKit          3D

 16 17  0  0  0  0  0  0  0  0999 V2000
   -3.0865   29.7223    4.3456 C   0  0  0  0  0  0  0  0  0  0  0  0
   -3.6739   28.8073    5.1151 C   0  0  0  0  0  0  0  0  0  0  0  0
   -3.5650   28.8903    6.4766 O   0  0  0  0  0  0  0  0  0  0  0  0
   -4.5030   27.8596    4.6152 N   0  0  0  0  0  0  0  0  0  0  0  0
   -4.1232   26.6194    4.5891 C   0  0  0  0  0  0  0  0  0  0  0  0
   -5.2199   25.6343    4.1124 C   0  0  0  0  0  0  0  0  0  0  0  0
   -5.0674   24.2419    4.6632 C   0  0  0  0  0  0  0  0  0  0  0  0
   -3.9307   23.8150    5.2306 C   0  0  0  0  0  0  0  0  0  0  0  0
   -2.8049   24.6976    5.2832 C   0  0  0  0  0  0  0  0  0  0  0  0
   -2.8288   25.9988    4.9774 C   0  0  0  0  0  0  0  0  0  0  0  0
   -1.4437   26.4830    5.0434 C   0  0  0  0  0  0  0  0  0  0  0  0
   -1.0179   27.5328    4.5990 O   0  0  0  0  0  0  0  0  0  0  0  0
   -0.6996   25.4778    5.5851 N   0  0  0  0  0  0  0  0  0  0  0  0
    0.7327   25.5300    5.7399 C   0  0  0  0  0  0  0  0  0  0  0  0
   -1.4308   24.3384    5.6654 C   0  0  0  0  0  0  0  0  0  0  0  0
   -1.0610   23.2154    5.9569 O   0  0  0  0  0  0  0  0  0  0  0  0
  1  2  2  3
  2  3  1  0
  2  4  1  0
  4  5  2  3
  5  6  1  0
  6  7  1  0
  7  8  2  0
  8  9  1  0
  9 10  2  0
 10 11  1  0
 11 12  2  0
 11 13  1  0
 13 14  1  0
 13 15  1  0
 15 16  2  0
 10  5  1  0
 15  9  1  0
M  END
>  <Energy>  (693) 
-62.616230668035399

>  <Energy_Delta>  (693) 
5.189401342503146

>  <std_smi>  (693) 
CC(=O)Nc1cccc2c1C(=O)N(C)C2=O

>  <enum_smi>  (693) 
C=C(O)N=C1CC=CC2=C1C(=O)N(C)C2=O

>  <enum_code>  (693) 
T

>  <parent_uuid>  (693) 
cf183151-a3f9-4e16-9f3b-758a388eb19e

>  <o3da_score>  (693) 
72.515088397005371

>  <o3da_score_rel>  (693) 
0.28869310305196738

>  <o3da_align>  (693) 
0.41652198614157349

>  <RMSD>  (693) 
0.148224772998166

>  <CONVERGED>  (693) 
0

>  <ENERGY>  (693) 
-61.995051578219403

$$$$
989500bb-1d21-466b-9589-af20a300c5bb
     RDKit          3D

 16 17  0  0  0  0  0  0  0  0999 V2000
   -2.1171   28.3749    3.1249 C   0  0  0  0  0  0  0  0  0  0  0  0
   -2.5728   28.6568    4.3466 C   0  0  0  0  0  0  0  0  0  0  0  0
   -1.6843   28.8566    5.3644 O   0  0  0  0  0  0  0  0  0  0  0  0
   -3.8791   28.8930    4.6250 N   0  0  0  0  0  0  0  0  0  0  0  0
   -4.7374   27.9203    4.6354 C   0  0  0  0  0  0  0  0  0  0  0  0
   -6.2107   28.3767    4.7803 C   0  0  0  0  0  0  0  0  0  0  0  0
   -7.2096   27.4081    4.2044 C   0  0  0  0  0  0  0  0  0  0  0  0
   -6.8885   26.1454    3.8887 C   0  0  0  0  0  0  0  0  0  0  0  0
   -5.5583   25.6822    4.1424 C   0  0  0  0  0  0  0  0  0  0  0  0
   -4.5309   26.4551    4.5067 C   0  0  0  0  0  0  0  0  0  0  0  0
   -3.4015   25.5657    4.7997 C   0  0  0  0  0  0  0  0  0  0  0  0
   -2.3797   25.8672    5.3875 O   0  0  0  0  0  0  0  0  0  0  0  0
   -3.7668   24.3175    4.3946 N   0  0  0  0  0  0  0  0  0  0  0  0
   -2.9596   23.1388    4.5882 C   0  0  0  0  0  0  0  0  0  0  0  0
   -5.0853   24.2911    4.0750 C   0  0  0  0  0  0  0  0  0  0  0  0
   -5.7858   23.3298    3.8142 O   0  0  0  0  0  0  0  0  0  0  0  0
  1  2  2  3
  2  3  1  0
  2  4  1  0
  4  5  2  3
  5  6  1  0
  6  7  1  0
  7  8  2  0
  8  9  1  0
  9 10  2  0
 10 11  1  0
 11 12  2  0
 11 13  1  0
 13 14  1  0
 13 15  1  0
 15 16  2  0
 10  5  1  0
 15  9  1  0
M  END
>  <Energy>  (694) 
-62.426204819550776

>  <Energy_Delta>  (694) 
5.3794271909877693

>  <std_smi>  (694) 
CC(=O)Nc1cccc2c1C(=O)N(C)C2=O

>  <enum_smi>  (694) 
C=C(O)N=C1CC=CC2=C1C(=O)N(C)C2=O

>  <enum_code>  (694) 
T

>  <parent_uuid>  (694) 
cf183151-a3f9-4e16-9f3b-758a388eb19e

>  <o3da_score>  (694) 
72.421717366911494

>  <o3da_score_rel>  (694) 
0.28832137941473779

>  <o3da_align>  (694) 
0.43843405118904788

>  <RMSD>  (694) 
6.2128057384118384e-05

>  <CONVERGED>  (694) 
0

>  <ENERGY>  (694) 
-62.426204819626932

$$$$
989500bb-1d21-466b-9589-af20a300c5bb
     RDKit          3D

 16 17  0  0  0  0  0  0  0  0999 V2000
   -4.3412   24.3591    2.3113 C   0  0  0  0  0  0  0  0  0  0  0  0
   -5.1146   24.6032    3.3706 C   0  0  0  0  0  0  0  0  0  0  0  0
   -5.9512   23.6261    3.8296 O   0  0  0  0  0  0  0  0  0  0  0  0
   -5.2258   25.8223    3.9544 N   0  0  0  0  0  0  0  0  0  0  0  0
   -4.2576   26.2998    4.6737 C   0  0  0  0  0  0  0  0  0  0  0  0
   -4.4588   27.7726    5.1099 C   0  0  0  0  0  0  0  0  0  0  0  0
   -3.1745   28.5088    5.3856 C   0  0  0  0  0  0  0  0  0  0  0  0
   -2.0032   27.8772    5.5481 C   0  0  0  0  0  0  0  0  0  0  0  0
   -1.9717   26.4473    5.4976 C   0  0  0  0  0  0  0  0  0  0  0  0
   -2.9890   25.6683    5.1182 C   0  0  0  0  0  0  0  0  0  0  0  0
   -2.5813   24.2783    5.3514 C   0  0  0  0  0  0  0  0  0  0  0  0
   -3.3110   23.3047    5.3616 O   0  0  0  0  0  0  0  0  0  0  0  0
   -1.2571   24.3036    5.6701 N   0  0  0  0  0  0  0  0  0  0  0  0
   -0.4983   23.1398    6.0547 C   0  0  0  0  0  0  0  0  0  0  0  0
   -0.8432   25.5804    5.8698 C   0  0  0  0  0  0  0  0  0  0  0  0
    0.2242   25.9752    6.3030 O   0  0  0  0  0  0  0  0  0  0  0  0
  1  2  2  3
  2  3  1  0
  2  4  1  0
  4  5  2  3
  5  6  1  0
  6  7  1  0
  7  8  2  0
  8  9  1  0
  9 10  2  0
 10 11  1  0
 11 12  2  0
 11 13  1  0
 13 14  1  0
 13 15  1  0
 15 16  2  0
 10  5  1  0
 15  9  1  0
M  END
>  <Energy>  (695) 
-62.426204819245527

>  <Energy_Delta>  (695) 
5.3794271912930185

>  <std_smi>  (695) 
CC(=O)Nc1cccc2c1C(=O)N(C)C2=O

>  <enum_smi>  (695) 
C=C(O)N=C1CC=CC2=C1C(=O)N(C)C2=O

>  <enum_code>  (695) 
T

>  <parent_uuid>  (695) 
cf183151-a3f9-4e16-9f3b-758a388eb19e

>  <o3da_score>  (695) 
74.224168790028045

>  <o3da_score_rel>  (695) 
0.29549720041892813

>  <o3da_align>  (695) 
0.57736372681200687

>  <RMSD>  (695) 
6.5191679335227835e-05

>  <CONVERGED>  (695) 
0

>  <ENERGY>  (695) 
-62.426204819593707

$$$$
525ce0af-ead6-4e15-a5bc-218db17c0c8f
     RDKit          3D

 16 17  0  0  0  0  0  0  0  0999 V2000
   -3.9122   30.1924    4.5902 C   0  0  0  0  0  0  0  0  0  0  0  0
   -3.8788   28.9869    5.1605 C   0  0  0  0  0  0  0  0  0  0  0  0
   -3.1991   28.8575    6.3451 O   0  0  0  0  0  0  0  0  0  0  0  0
   -4.5702   27.8991    4.7030 N   0  0  0  0  0  0  0  0  0  0  0  0
   -4.1970   26.5425    4.6867 C   0  0  0  0  0  0  0  0  0  0  0  0
   -2.9847   26.0460    5.1954 C   0  0  0  0  0  0  0  0  0  0  0  0
   -2.6947   24.6618    5.2224 C   0  0  0  0  0  0  0  0  0  0  0  0
   -3.6148   23.7272    4.7477 C   0  0  0  0  0  0  0  0  0  0  0  0
   -4.8023   24.2202    4.2500 C   0  0  0  0  0  0  0  0  0  0  0  0
   -5.0820   25.5772    4.2191 C   0  0  0  0  0  0  0  0  0  0  0  0
   -6.3996   25.7306    3.5992 C   0  0  0  0  0  0  0  0  0  0  0  0
   -6.9103   26.8065    3.3455 O   0  0  0  0  0  0  0  0  0  0  0  0
   -6.8647   24.4709    3.3452 N   0  0  0  0  0  0  0  0  0  0  0  0
   -8.1165   24.1902    2.6872 C   0  0  0  0  0  0  0  0  0  0  0  0
   -5.9461   23.5146    3.6755 C   0  0  0  0  0  0  0  0  0  0  0  0
   -6.0027   22.3088    3.5308 O   0  0  0  0  0  0  0  0  0  0  0  0
  1  2  2  3
  2  3  1  0
  2  4  1  0
  4  5  1  0
  5  6  2  0
  6  7  1  0
  7  8  2  0
  8  9  1  0
  9 10  2  0
 10 11  1  0
 11 12  2  0
 11 13  1  0
 13 14  1  0
 13 15  1  0
 15 16  2  0
 10  5  1  0
 15  9  1  0
M  END
>  <Energy>  (696) 
-44.853562733348191

>  <Energy_Delta>  (696) 
0

>  <std_smi>  (696) 
CC(=O)Nc1cccc2c1C(=O)N(C)C2=O

>  <enum_smi>  (696) 
C=C(O)Nc1cccc2c1C(=O)N(C)C2=O

>  <enum_code>  (696) 
T

>  <parent_uuid>  (696) 
cf183151-a3f9-4e16-9f3b-758a388eb19e

>  <o3da_score>  (696) 
69.232216531119462

>  <o3da_score_rel>  (696) 
0.2756235131661231

>  <o3da_align>  (696) 
0.26217732951638595

>  <RMSD>  (696) 
5.5965936658544749e-05

>  <CONVERGED>  (696) 
0

>  <ENERGY>  (696) 
-44.853562733473787

$$$$
525ce0af-ead6-4e15-a5bc-218db17c0c8f
     RDKit          3D

 16 17  0  0  0  0  0  0  0  0999 V2000
   -4.5044   30.1621    5.4274 C   0  0  0  0  0  0  0  0  0  0  0  0
   -3.9906   29.0718    4.8556 C   0  0  0  0  0  0  0  0  0  0  0  0
   -2.7041   29.1418    4.3842 O   0  0  0  0  0  0  0  0  0  0  0  0
   -4.6968   27.9273    4.6065 N   0  0  0  0  0  0  0  0  0  0  0  0
   -4.2802   26.5850    4.6746 C   0  0  0  0  0  0  0  0  0  0  0  0
   -2.9779   26.1733    5.0050 C   0  0  0  0  0  0  0  0  0  0  0  0
   -2.5945   24.8119    4.9831 C   0  0  0  0  0  0  0  0  0  0  0  0
   -3.5026   23.8172    4.6204 C   0  0  0  0  0  0  0  0  0  0  0  0
   -4.7786   24.2273    4.2972 C   0  0  0  0  0  0  0  0  0  0  0  0
   -5.1537   25.5611    4.3250 C   0  0  0  0  0  0  0  0  0  0  0  0
   -6.5716   25.6166    3.9638 C   0  0  0  0  0  0  0  0  0  0  0  0
   -7.2357   26.6372    3.9722 O   0  0  0  0  0  0  0  0  0  0  0  0
   -6.9574   24.3357    3.6839 N   0  0  0  0  0  0  0  0  0  0  0  0
   -8.3039   23.9566    3.3346 C   0  0  0  0  0  0  0  0  0  0  0  0
   -5.9451   23.4428    3.8968 C   0  0  0  0  0  0  0  0  0  0  0  0
   -5.9546   22.2306    3.8052 O   0  0  0  0  0  0  0  0  0  0  0  0
  1  2  2  3
  2  3  1  0
  2  4  1  0
  4  5  1  0
  5  6  2  0
  6  7  1  0
  7  8  2  0
  8  9  1  0
  9 10  2  0
 10 11  1  0
 11 12  2  0
 11 13  1  0
 13 14  1  0
 13 15  1  0
 15 16  2  0
 10  5  1  0
 15  9  1  0
M  END
>  <Energy>  (697) 
-44.853562732880739

>  <Energy_Delta>  (697) 
4.6745185500185471e-10

>  <std_smi>  (697) 
CC(=O)Nc1cccc2c1C(=O)N(C)C2=O

>  <enum_smi>  (697) 
C=C(O)Nc1cccc2c1C(=O)N(C)C2=O

>  <enum_code>  (697) 
T

>  <parent_uuid>  (697) 
cf183151-a3f9-4e16-9f3b-758a388eb19e

>  <o3da_score>  (697) 
72.301757532410008

>  <o3da_score_rel>  (697) 
0.28784380188391778

>  <o3da_align>  (697) 
0.44121466010127774

>  <RMSD>  (697) 
5.474705279458142e-05

>  <CONVERGED>  (697) 
0

>  <ENERGY>  (697) 
-44.853562733478888

$$$$
525ce0af-ead6-4e15-a5bc-218db17c0c8f
     RDKit          3D

 16 17  0  0  0  0  0  0  0  0999 V2000
   -3.5537   28.8820    6.6187 C   0  0  0  0  0  0  0  0  0  0  0  0
   -4.0748   28.9396    5.3918 C   0  0  0  0  0  0  0  0  0  0  0  0
   -4.2894   30.1896    4.8642 O   0  0  0  0  0  0  0  0  0  0  0  0
   -4.4736   27.9154    4.5759 N   0  0  0  0  0  0  0  0  0  0  0  0
   -4.1778   26.5436    4.6714 C   0  0  0  0  0  0  0  0  0  0  0  0
   -2.9515   26.0433    5.1396 C   0  0  0  0  0  0  0  0  0  0  0  0
   -2.6844   24.6560    5.1989 C   0  0  0  0  0  0  0  0  0  0  0  0
   -3.6343   23.7250    4.7766 C   0  0  0  0  0  0  0  0  0  0  0  0
   -4.8264   24.2250    4.2961 C   0  0  0  0  0  0  0  0  0  0  0  0
   -5.0842   25.5848    4.2387 C   0  0  0  0  0  0  0  0  0  0  0  0
   -6.4177   25.7489    3.6615 C   0  0  0  0  0  0  0  0  0  0  0  0
   -6.9261   26.8328    3.4374 O   0  0  0  0  0  0  0  0  0  0  0  0
   -6.9053   24.4935    3.4326 N   0  0  0  0  0  0  0  0  0  0  0  0
   -8.1856   24.2186    2.8295 C   0  0  0  0  0  0  0  0  0  0  0  0
   -5.9963   23.5278    3.7648 C   0  0  0  0  0  0  0  0  0  0  0  0
   -6.0802   22.3201    3.6524 O   0  0  0  0  0  0  0  0  0  0  0  0
  1  2  2  3
  2  3  1  0
  2  4  1  0
  4  5  1  0
  5  6  2  0
  6  7  1  0
  7  8  2  0
  8  9  1  0
  9 10  2  0
 10 11  1  0
 11 12  2  0
 11 13  1  0
 13 14  1  0
 13 15  1  0
 15 16  2  0
 10  5  1  0
 15  9  1  0
M  END
>  <Energy>  (698) 
-41.992407881834538

>  <Energy_Delta>  (698) 
2.8611548515136533

>  <std_smi>  (698) 
CC(=O)Nc1cccc2c1C(=O)N(C)C2=O

>  <enum_smi>  (698) 
C=C(O)Nc1cccc2c1C(=O)N(C)C2=O

>  <enum_code>  (698) 
T

>  <parent_uuid>  (698) 
cf183151-a3f9-4e16-9f3b-758a388eb19e

>  <o3da_score>  (698) 
67.447690639818191

>  <o3da_score_rel>  (698) 
0.26851905630859524

>  <o3da_align>  (698) 
0.34325897027765356

>  <RMSD>  (698) 
5.4704466265069242e-05

>  <CONVERGED>  (698) 
0

>  <ENERGY>  (698) 
-41.992407881872609

$$$$
525ce0af-ead6-4e15-a5bc-218db17c0c8f
     RDKit          3D

 16 17  0  0  0  0  0  0  0  0999 V2000
   -2.7635   29.2602    7.5773 C   0  0  0  0  0  0  0  0  0  0  0  0
   -1.9381   28.5656    6.7922 C   0  0  0  0  0  0  0  0  0  0  0  0
   -0.5950   28.8259    6.9154 O   0  0  0  0  0  0  0  0  0  0  0  0
   -2.2333   27.5809    5.8884 N   0  0  0  0  0  0  0  0  0  0  0  0
   -3.4775   27.2414    5.3269 C   0  0  0  0  0  0  0  0  0  0  0  0
   -4.4775   28.1811    5.0266 C   0  0  0  0  0  0  0  0  0  0  0  0
   -5.7074   27.8018    4.4408 C   0  0  0  0  0  0  0  0  0  0  0  0
   -5.9685   26.4681    4.1238 C   0  0  0  0  0  0  0  0  0  0  0  0
   -4.9725   25.5552    4.3999 C   0  0  0  0  0  0  0  0  0  0  0  0
   -3.7685   25.9306    4.9730 C   0  0  0  0  0  0  0  0  0  0  0  0
   -2.9535   24.7230    5.0991 C   0  0  0  0  0  0  0  0  0  0  0  0
   -1.8148   24.7208    5.5311 O   0  0  0  0  0  0  0  0  0  0  0  0
   -3.7103   23.6863    4.6314 N   0  0  0  0  0  0  0  0  0  0  0  0
   -3.2526   22.3217    4.5476 C   0  0  0  0  0  0  0  0  0  0  0  0
   -4.9251   24.1122    4.1708 C   0  0  0  0  0  0  0  0  0  0  0  0
   -5.8200   23.4720    3.6535 O   0  0  0  0  0  0  0  0  0  0  0  0
  1  2  2  3
  2  3  1  0
  2  4  1  0
  4  5  1  0
  5  6  2  0
  6  7  1  0
  7  8  2  0
  8  9  1  0
  9 10  2  0
 10 11  1  0
 11 12  2  0
 11 13  1  0
 13 14  1  0
 13 15  1  0
 15 16  2  0
 10  5  1  0
 15  9  1  0
M  END
>  <Energy>  (699) 
-41.99240788182378

>  <Energy_Delta>  (699) 
2.861154851524411

>  <std_smi>  (699) 
CC(=O)Nc1cccc2c1C(=O)N(C)C2=O

>  <enum_smi>  (699) 
C=C(O)Nc1cccc2c1C(=O)N(C)C2=O

>  <enum_code>  (699) 
T

>  <parent_uuid>  (699) 
cf183151-a3f9-4e16-9f3b-758a388eb19e

>  <o3da_score>  (699) 
69.237007349567733

>  <o3da_score_rel>  (699) 
0.27564258611045184

>  <o3da_align>  (699) 
0.43245517537786471

>  <RMSD>  (699) 
8.0822140047196313e-05

>  <CONVERGED>  (699) 
0

>  <ENERGY>  (699) 
-41.992407881870321

$$$$
1328e770-9876-4b60-8523-80333d172024
     RDKit          3D

 16 17  0  0  0  0  0  0  0  0999 V2000
   -4.0572   30.0200    5.8402 C   0  0  0  0  0  0  0  0  0  0  0  0
   -3.7396   28.9464    4.8365 C   0  0  0  0  0  0  0  0  0  0  0  0
   -2.7875   29.0315    4.0668 O   0  0  0  0  0  0  0  0  0  0  0  0
   -4.6530   27.9213    4.8109 N   0  0  0  0  0  0  0  0  0  0  0  0
   -4.2169   26.6954    4.7252 C   0  0  0  0  0  0  0  0  0  0  0  0
   -5.2657   25.6496    4.4801 C   0  0  0  0  0  0  0  0  0  0  0  0
   -4.9390   24.3528    4.3846 C   0  0  0  0  0  0  0  0  0  0  0  0
   -3.6059   23.8732    4.6492 C   0  0  0  0  0  0  0  0  0  0  0  0
   -2.6256   24.7628    4.8298 C   0  0  0  0  0  0  0  0  0  0  0  0
   -1.3429   24.4400    5.4784 C   0  0  0  0  0  0  0  0  0  0  0  0
   -0.8612   23.3274    5.5740 O   0  0  0  0  0  0  0  0  0  0  0  0
   -0.9228   25.6120    6.0357 N   0  0  0  0  0  0  0  0  0  0  0  0
    0.1212   25.6591    7.0295 C   0  0  0  0  0  0  0  0  0  0  0  0
   -1.8747   26.5991    5.9027 C   0  0  0  0  0  0  0  0  0  0  0  0
   -1.9900   27.5721    6.6348 O   0  0  0  0  0  0  0  0  0  0  0  0
   -2.7590   26.2474    4.7301 C   0  0  2  0  0  0  0  0  0  0  0  0
  1  2  1  0
  2  3  2  0
  2  4  1  0
  4  5  2  3
  5  6  1  0
  6  7  2  0
  7  8  1  0
  8  9  2  0
  9 10  1  0
 10 11  2  0
 10 12  1  0
 12 13  1  0
 12 14  1  0
 14 15  2  0
 16 14  1  1
 16  5  1  0
 16  9  1  0
M  END
>  <Energy>  (700) 
-32.296755438391898

>  <Energy_Delta>  (700) 
0

>  <std_smi>  (700) 
CC(=O)Nc1cccc2c1C(=O)N(C)C2=O

>  <enum_smi>  (700) 
CC(=O)N=C1C=CC=C2C(=O)N(C)C(=O)C21

>  <enum_code>  (700) 
T

>  <parent_uuid>  (700) 
cf183151-a3f9-4e16-9f3b-758a388eb19e

>  <o3da_score>  (700) 
75.317433161649689

>  <o3da_score_rel>  (700) 
0.29984964472916142

>  <o3da_align>  (700) 
0.4107081981531896

>  <RMSD>  (700) 
6.0985776178242318e-05

>  <CONVERGED>  (700) 
0

>  <ENERGY>  (700) 
-32.296755438435675

$$$$
1328e770-9876-4b60-8523-80333d172024
     RDKit          3D

 16 17  0  0  0  0  0  0  0  0999 V2000
   -3.3636   29.9897    4.1675 C   0  0  0  0  0  0  0  0  0  0  0  0
   -3.6796   28.8532    5.0999 C   0  0  0  0  0  0  0  0  0  0  0  0
   -3.3145   28.8476    6.2715 O   0  0  0  0  0  0  0  0  0  0  0  0
   -4.4736   27.8812    4.5429 N   0  0  0  0  0  0  0  0  0  0  0  0
   -4.1839   26.6300    4.7682 C   0  0  0  0  0  0  0  0  0  0  0  0
   -5.2130   25.6345    4.3168 C   0  0  0  0  0  0  0  0  0  0  0  0
   -5.0210   24.3183    4.4848 C   0  0  0  0  0  0  0  0  0  0  0  0
   -3.7758   23.7774    4.9688 C   0  0  0  0  0  0  0  0  0  0  0  0
   -2.8427   24.6179    5.4246 C   0  0  0  0  0  0  0  0  0  0  0  0
   -1.4228   24.2546    5.5734 C   0  0  0  0  0  0  0  0  0  0  0  0
   -0.9920   23.1225    5.6816 O   0  0  0  0  0  0  0  0  0  0  0  0
   -0.7400   25.4264    5.4266 N   0  0  0  0  0  0  0  0  0  0  0  0
    0.6809   25.4619    5.1831 C   0  0  0  0  0  0  0  0  0  0  0  0
   -1.5849   26.4581    5.0803 C   0  0  0  0  0  0  0  0  0  0  0  0
   -1.2539   27.4699    4.4782 O   0  0  0  0  0  0  0  0  0  0  0  0
   -2.9788   26.1012    5.5391 C   0  0  1  0  0  0  0  0  0  0  0  0
  1  2  1  0
  2  3  2  0
  2  4  1  0
  4  5  2  3
  5  6  1  0
  6  7  2  0
  7  8  1  0
  8  9  2  0
  9 10  1  0
 10 11  2  0
 10 12  1  0
 12 13  1  0
 12 14  1  0
 14 15  2  0
 16 14  1  6
 16  5  1  0
 16  9  1  0
M  END
>  <Energy>  (701) 
-32.296755438007288

>  <Energy_Delta>  (701) 
3.8460967743958463e-10

>  <std_smi>  (701) 
CC(=O)Nc1cccc2c1C(=O)N(C)C2=O

>  <enum_smi>  (701) 
CC(=O)N=C1C=CC=C2C(=O)N(C)C(=O)C21

>  <enum_code>  (701) 
T

>  <parent_uuid>  (701) 
cf183151-a3f9-4e16-9f3b-758a388eb19e

>  <o3da_score>  (701) 
74.537715930706227

>  <o3da_score_rel>  (701) 
0.29674547714307531

>  <o3da_align>  (701) 
0.39376573238005791

>  <RMSD>  (701) 
6.6456800041901951e-05

>  <CONVERGED>  (701) 
0

>  <ENERGY>  (701) 
-32.296755438434623

$$$$
1328e770-9876-4b60-8523-80333d172024
     RDKit          3D

 16 17  0  0  0  0  0  0  0  0999 V2000
   -2.0998   30.5853    4.2086 C   0  0  0  0  0  0  0  0  0  0  0  0
   -3.3029   29.8007    3.7568 C   0  0  0  0  0  0  0  0  0  0  0  0
   -4.0926   30.2617    2.9390 O   0  0  0  0  0  0  0  0  0  0  0  0
   -3.3590   28.5488    4.3124 N   0  0  0  0  0  0  0  0  0  0  0  0
   -4.4716   27.9019    4.4422 C   0  0  0  0  0  0  0  0  0  0  0  0
   -5.8609   28.4187    4.1551 C   0  0  0  0  0  0  0  0  0  0  0  0
   -6.8680   27.5451    3.9926 C   0  0  0  0  0  0  0  0  0  0  0  0
   -6.6448   26.1186    3.9763 C   0  0  0  0  0  0  0  0  0  0  0  0
   -5.4860   25.6528    4.4520 C   0  0  0  0  0  0  0  0  0  0  0  0
   -4.9798   24.2875    4.2542 C   0  0  0  0  0  0  0  0  0  0  0  0
   -5.6466   23.3377    3.8898 O   0  0  0  0  0  0  0  0  0  0  0  0
   -3.6413   24.3551    4.4986 N   0  0  0  0  0  0  0  0  0  0  0  0
   -2.7365   23.2568    4.2618 C   0  0  0  0  0  0  0  0  0  0  0  0
   -3.2135   25.6242    4.8214 C   0  0  0  0  0  0  0  0  0  0  0  0
   -2.0431   25.9521    4.9617 O   0  0  0  0  0  0  0  0  0  0  0  0
   -4.4176   26.5044    5.0526 C   0  0  1  0  0  0  0  0  0  0  0  0
  1  2  1  0
  2  3  2  0
  2  4  1  0
  4  5  2  3
  5  6  1  0
  6  7  2  0
  7  8  1  0
  8  9  2  0
  9 10  1  0
 10 11  2  0
 10 12  1  0
 12 13  1  0
 12 14  1  0
 14 15  2  0
 16 14  1  6
 16  5  1  0
 16  9  1  0
M  END
>  <Energy>  (702) 
-28.331138852988367

>  <Energy_Delta>  (702) 
3.9656165854035308

>  <std_smi>  (702) 
CC(=O)Nc1cccc2c1C(=O)N(C)C2=O

>  <enum_smi>  (702) 
CC(=O)N=C1C=CC=C2C(=O)N(C)C(=O)C21

>  <enum_code>  (702) 
T

>  <parent_uuid>  (702) 
cf183151-a3f9-4e16-9f3b-758a388eb19e

>  <o3da_score>  (702) 
75.132794610504604

>  <o3da_score_rel>  (702) 
0.29911457182983231

>  <o3da_align>  (702) 
0.54017478568098654

>  <RMSD>  (702) 
6.5136723772160282e-05

>  <CONVERGED>  (702) 
0

>  <ENERGY>  (702) 
-28.33113885311727

$$$$
1328e770-9876-4b60-8523-80333d172024
     RDKit          3D

 16 17  0  0  0  0  0  0  0  0999 V2000
   -0.6364   30.2191    0.6869 C   0  0  0  0  0  0  0  0  0  0  0  0
   -1.4953   30.3654    1.9149 C   0  0  0  0  0  0  0  0  0  0  0  0
   -1.5735   31.4338    2.5129 O   0  0  0  0  0  0  0  0  0  0  0  0
   -2.0990   29.1912    2.2831 N   0  0  0  0  0  0  0  0  0  0  0  0
   -3.1888   29.1655    2.9795 C   0  0  0  0  0  0  0  0  0  0  0  0
   -4.0369   30.3480    3.3818 C   0  0  0  0  0  0  0  0  0  0  0  0
   -4.9205   30.2141    4.3844 C   0  0  0  0  0  0  0  0  0  0  0  0
   -5.0102   29.0025    5.1649 C   0  0  0  0  0  0  0  0  0  0  0  0
   -4.4435   27.8932    4.6808 C   0  0  0  0  0  0  0  0  0  0  0  0
   -4.1919   26.6680    5.4521 C   0  0  0  0  0  0  0  0  0  0  0  0
   -4.7034   26.3942    6.5211 O   0  0  0  0  0  0  0  0  0  0  0  0
   -3.2464   25.9824    4.7507 N   0  0  0  0  0  0  0  0  0  0  0  0
   -2.6017   24.7908    5.2461 C   0  0  0  0  0  0  0  0  0  0  0  0
   -2.8403   26.6361    3.6080 C   0  0  0  0  0  0  0  0  0  0  0  0
   -1.9196   26.2758    2.8872 O   0  0  0  0  0  0  0  0  0  0  0  0
   -3.7637   27.8029    3.3553 C   0  0  2  0  0  0  0  0  0  0  0  0
  1  2  1  0
  2  3  2  0
  2  4  1  0
  4  5  2  3
  5  6  1  0
  6  7  2  0
  7  8  1  0
  8  9  2  0
  9 10  1  0
 10 11  2  0
 10 12  1  0
 12 13  1  0
 12 14  1  0
 14 15  2  0
 16 14  1  1
 16  5  1  0
 16  9  1  0
M  END
>  <Energy>  (703) 
-28.331138852846827

>  <Energy_Delta>  (703) 
3.9656165855450709

>  <std_smi>  (703) 
CC(=O)Nc1cccc2c1C(=O)N(C)C2=O

>  <enum_smi>  (703) 
CC(=O)N=C1C=CC=C2C(=O)N(C)C(=O)C21

>  <enum_code>  (703) 
T

>  <parent_uuid>  (703) 
cf183151-a3f9-4e16-9f3b-758a388eb19e

>  <o3da_score>  (703) 
60.80466334943246

>  <o3da_score_rel>  (703) 
0.24207219946108216

>  <o3da_align>  (703) 
0.56110829178364729

>  <RMSD>  (703) 
6.301110315325163e-05

>  <CONVERGED>  (703) 
0

>  <ENERGY>  (703) 
-28.331138853121068

$$$$
1328e770-9876-4b60-8523-80333d172024
     RDKit          3D

 16 17  0  0  0  0  0  0  0  0999 V2000
   -7.7068   28.0782    5.3900 C   0  0  0  0  0  0  0  0  0  0  0  0
   -6.9974   26.8115    5.7784 C   0  0  0  0  0  0  0  0  0  0  0  0
   -6.2970   26.7247    6.7810 O   0  0  0  0  0  0  0  0  0  0  0  0
   -7.2669   25.7399    4.9723 N   0  0  0  0  0  0  0  0  0  0  0  0
   -6.2942   25.1693    4.3250 C   0  0  0  0  0  0  0  0  0  0  0  0
   -6.6301   23.8624    3.6515 C   0  0  0  0  0  0  0  0  0  0  0  0
   -5.6454   22.9543    3.5310 C   0  0  0  0  0  0  0  0  0  0  0  0
   -4.3302   23.1882    4.0968 C   0  0  0  0  0  0  0  0  0  0  0  0
   -3.9892   24.4473    4.3964 C   0  0  0  0  0  0  0  0  0  0  0  0
   -2.8214   24.8848    5.1738 C   0  0  0  0  0  0  0  0  0  0  0  0
   -1.8651   24.1858    5.4506 O   0  0  0  0  0  0  0  0  0  0  0  0
   -3.0510   26.1929    5.4822 N   0  0  0  0  0  0  0  0  0  0  0  0
   -2.1267   27.0045    6.2343 C   0  0  0  0  0  0  0  0  0  0  0  0
   -4.1664   26.7047    4.8661 C   0  0  0  0  0  0  0  0  0  0  0  0
   -4.4910   27.8862    4.8300 O   0  0  0  0  0  0  0  0  0  0  0  0
   -4.8626   25.6228    4.1000 C   0  0  2  0  0  0  0  0  0  0  0  0
  1  2  1  0
  2  3  2  0
  2  4  1  0
  4  5  2  3
  5  6  1  0
  6  7  2  0
  7  8  1  0
  8  9  2  0
  9 10  1  0
 10 11  2  0
 10 12  1  0
 12 13  1  0
 12 14  1  0
 14 15  2  0
 16 14  1  1
 16  5  1  0
 16  9  1  0
M  END
>  <Energy>  (704) 
-25.318909081740451

>  <Energy_Delta>  (704) 
6.9778463566514475

>  <std_smi>  (704) 
CC(=O)Nc1cccc2c1C(=O)N(C)C2=O

>  <enum_smi>  (704) 
CC(=O)N=C1C=CC=C2C(=O)N(C)C(=O)C21

>  <enum_code>  (704) 
T

>  <parent_uuid>  (704) 
cf183151-a3f9-4e16-9f3b-758a388eb19e

>  <o3da_score>  (704) 
65.714278882941187

>  <o3da_score_rel>  (704) 
0.26161809224688354

>  <o3da_align>  (704) 
0.43939318622230089

>  <RMSD>  (704) 
5.7243302871603584e-05

>  <CONVERGED>  (704) 
0

>  <ENERGY>  (704) 
-25.318909082169405

$$$$
4a56a107-d06d-4959-8f5d-4f99409d9b6e
     RDKit          3D

 16 17  0  0  0  0  0  0  0  0999 V2000
   -5.7444   29.6520    3.8597 C   0  0  0  0  0  0  0  0  0  0  0  0
   -5.8283   28.3595    4.6260 C   0  0  0  0  0  0  0  0  0  0  0  0
   -6.9057   27.8783    4.9590 O   0  0  0  0  0  0  0  0  0  0  0  0
   -4.5990   27.8427    4.9525 N   0  0  0  0  0  0  0  0  0  0  0  0
   -4.3864   26.5696    4.8175 C   0  0  0  0  0  0  0  0  0  0  0  0
   -5.3090   25.5042    4.2764 C   0  0  0  0  0  0  0  0  0  0  0  0
   -4.9220   24.2179    4.1750 C   0  0  0  0  0  0  0  0  0  0  0  0
   -3.6058   23.7545    4.5707 C   0  0  0  0  0  0  0  0  0  0  0  0
   -2.7357   24.6377    5.0638 C   0  0  0  0  0  0  0  0  0  0  0  0
   -1.3381   24.4527    5.5492 C   0  0  0  0  0  0  0  0  0  0  0  0
   -0.7125   23.4119    5.5776 O   0  0  0  0  0  0  0  0  0  0  0  0
   -0.9692   25.7443    5.9400 N   0  0  0  0  0  0  0  0  0  0  0  0
    0.3149   26.0864    6.4919 C   0  0  0  0  0  0  0  0  0  0  0  0
   -1.9931   26.6396    5.7331 C   0  0  0  0  0  0  0  0  0  0  0  0
   -1.8436   27.9528    6.0500 O   0  0  0  0  0  0  0  0  0  0  0  0
   -3.0637   26.0310    5.2109 C   0  0  0  0  0  0  0  0  0  0  0  0
  1  2  1  0
  2  3  2  0
  2  4  1  0
  4  5  2  3
  5  6  1  0
  6  7  2  0
  7  8  1  0
  8  9  2  0
  9 10  1  0
 10 11  2  0
 10 12  1  0
 12 13  1  0
 12 14  1  0
 14 15  1  0
 14 16  2  0
 16  5  1  0
 16  9  1  0
M  END
>  <Energy>  (705) 
0.10295036689751536

>  <Energy_Delta>  (705) 
0

>  <std_smi>  (705) 
CC(=O)Nc1cccc2c1C(=O)N(C)C2=O

>  <enum_smi>  (705) 
CC(=O)N=C1C=CC=C2C(=O)N(C)C(O)=C21

>  <enum_code>  (705) 
T

>  <parent_uuid>  (705) 
cf183151-a3f9-4e16-9f3b-758a388eb19e

>  <o3da_score>  (705) 
71.51257011610511

>  <o3da_score_rel>  (705) 
0.28470193211392886

>  <o3da_align>  (705) 
0.3086629196407697

>  <RMSD>  (705) 
5.9285261870059084e-05

>  <CONVERGED>  (705) 
0

>  <ENERGY>  (705) 
0.10295036682953462

$$$$
4a56a107-d06d-4959-8f5d-4f99409d9b6e
     RDKit          3D

 16 17  0  0  0  0  0  0  0  0999 V2000
   -0.3623   28.4715    7.6796 C   0  0  0  0  0  0  0  0  0  0  0  0
   -1.0316   28.4655    6.3317 C   0  0  0  0  0  0  0  0  0  0  0  0
   -1.0311   29.4562    5.6093 O   0  0  0  0  0  0  0  0  0  0  0  0
   -1.5608   27.2442    5.9953 N   0  0  0  0  0  0  0  0  0  0  0  0
   -2.7364   27.1877    5.4484 C   0  0  0  0  0  0  0  0  0  0  0  0
   -3.7010   28.3102    5.1510 C   0  0  0  0  0  0  0  0  0  0  0  0
   -4.9081   28.0784    4.5996 C   0  0  0  0  0  0  0  0  0  0  0  0
   -5.3763   26.7508    4.2506 C   0  0  0  0  0  0  0  0  0  0  0  0
   -4.5767   25.7074    4.4790 C   0  0  0  0  0  0  0  0  0  0  0  0
   -4.7847   24.2535    4.2224 C   0  0  0  0  0  0  0  0  0  0  0  0
   -5.7725   23.7367    3.7399 O   0  0  0  0  0  0  0  0  0  0  0  0
   -3.5887   23.6824    4.6705 N   0  0  0  0  0  0  0  0  0  0  0  0
   -3.2993   22.2737    4.6272 C   0  0  0  0  0  0  0  0  0  0  0  0
   -2.7274   24.6416    5.1509 C   0  0  0  0  0  0  0  0  0  0  0  0
   -1.5038   24.2989    5.6334 O   0  0  0  0  0  0  0  0  0  0  0  0
   -3.2699   25.8611    5.0614 C   0  0  0  0  0  0  0  0  0  0  0  0
  1  2  1  0
  2  3  2  0
  2  4  1  0
  4  5  2  3
  5  6  1  0
  6  7  2  0
  7  8  1  0
  8  9  2  0
  9 10  1  0
 10 11  2  0
 10 12  1  0
 12 13  1  0
 12 14  1  0
 14 15  1  0
 14 16  2  0
 16  5  1  0
 16  9  1  0
M  END
>  <Energy>  (706) 
0.10295036691666848

>  <Energy_Delta>  (706) 
1.9153123531623351e-11

>  <std_smi>  (706) 
CC(=O)Nc1cccc2c1C(=O)N(C)C2=O

>  <enum_smi>  (706) 
CC(=O)N=C1C=CC=C2C(=O)N(C)C(O)=C21

>  <enum_code>  (706) 
T

>  <parent_uuid>  (706) 
cf183151-a3f9-4e16-9f3b-758a388eb19e

>  <o3da_score>  (706) 
70.2293547558385

>  <o3da_score_rel>  (706) 
0.27959326531880413

>  <o3da_align>  (706) 
0.38338658428922012

>  <RMSD>  (706) 
7.5327443588134451e-05

>  <CONVERGED>  (706) 
0

>  <ENERGY>  (706) 
0.10295036683638825

$$$$
4a56a107-d06d-4959-8f5d-4f99409d9b6e
     RDKit          3D

 16 17  0  0  0  0  0  0  0  0999 V2000
   -4.3624   29.7586    6.2440 C   0  0  0  0  0  0  0  0  0  0  0  0
   -3.7702   28.9397    5.1307 C   0  0  0  0  0  0  0  0  0  0  0  0
   -2.7022   29.2322    4.6020 O   0  0  0  0  0  0  0  0  0  0  0  0
   -4.5503   27.9004    4.7330 N   0  0  0  0  0  0  0  0  0  0  0  0
   -4.1148   26.6808    4.7257 C   0  0  0  0  0  0  0  0  0  0  0  0
   -5.1502   25.6841    4.2593 C   0  0  0  0  0  0  0  0  0  0  0  0
   -4.9663   24.3568    4.3124 C   0  0  0  0  0  0  0  0  0  0  0  0
   -3.7464   23.7775    4.8120 C   0  0  0  0  0  0  0  0  0  0  0  0
   -2.7525   24.5864    5.1831 C   0  0  0  0  0  0  0  0  0  0  0  0
   -1.4167   24.1679    5.6728 C   0  0  0  0  0  0  0  0  0  0  0  0
   -1.0301   23.0311    5.8550 O   0  0  0  0  0  0  0  0  0  0  0  0
   -0.7672   25.3811    5.8435 N   0  0  0  0  0  0  0  0  0  0  0  0
    0.5975   25.5017    6.2900 C   0  0  0  0  0  0  0  0  0  0  0  0
   -1.5782   26.4481    5.5130 C   0  0  0  0  0  0  0  0  0  0  0  0
   -1.0274   27.6824    5.6098 O   0  0  0  0  0  0  0  0  0  0  0  0
   -2.8089   26.0445    5.1345 C   0  0  0  0  0  0  0  0  0  0  0  0
  1  2  1  0
  2  3  2  0
  2  4  1  0
  4  5  2  3
  5  6  1  0
  6  7  2  0
  7  8  1  0
  8  9  2  0
  9 10  1  0
 10 11  2  0
 10 12  1  0
 12 13  1  0
 12 14  1  0
 14 15  1  0
 14 16  2  0
 16  5  1  0
 16  9  1  0
M  END
>  <Energy>  (707) 
3.5106179886401918

>  <Energy_Delta>  (707) 
3.4076676217426765

>  <std_smi>  (707) 
CC(=O)Nc1cccc2c1C(=O)N(C)C2=O

>  <enum_smi>  (707) 
CC(=O)N=C1C=CC=C2C(=O)N(C)C(O)=C21

>  <enum_code>  (707) 
T

>  <parent_uuid>  (707) 
cf183151-a3f9-4e16-9f3b-758a388eb19e

>  <o3da_score>  (707) 
72.828017704207994

>  <o3da_score_rel>  (707) 
0.28993892009127969

>  <o3da_align>  (707) 
0.2133919233643389

>  <RMSD>  (707) 
7.0772979987696996e-05

>  <CONVERGED>  (707) 
0

>  <ENERGY>  (707) 
3.5106179885666338

$$$$
4a56a107-d06d-4959-8f5d-4f99409d9b6e
     RDKit          3D

 16 17  0  0  0  0  0  0  0  0999 V2000
   -3.4365   29.8795    3.8494 C   0  0  0  0  0  0  0  0  0  0  0  0
   -3.6828   28.9255    4.9852 C   0  0  0  0  0  0  0  0  0  0  0  0
   -3.2207   29.1125    6.1065 O   0  0  0  0  0  0  0  0  0  0  0  0
   -4.5038   27.8896    4.6696 N   0  0  0  0  0  0  0  0  0  0  0  0
   -4.1412   26.6563    4.8259 C   0  0  0  0  0  0  0  0  0  0  0  0
   -5.2024   25.6678    4.4016 C   0  0  0  0  0  0  0  0  0  0  0  0
   -4.9890   24.3453    4.3380 C   0  0  0  0  0  0  0  0  0  0  0  0
   -3.7196   23.7622    4.6874 C   0  0  0  0  0  0  0  0  0  0  0  0
   -2.7463   24.5564    5.1367 C   0  0  0  0  0  0  0  0  0  0  0  0
   -1.4000   24.1265    5.5858 C   0  0  0  0  0  0  0  0  0  0  0  0
   -0.9542   22.9967    5.5762 O   0  0  0  0  0  0  0  0  0  0  0  0
   -0.8305   25.3186    6.0070 N   0  0  0  0  0  0  0  0  0  0  0  0
    0.4942   25.4188    6.5653 C   0  0  0  0  0  0  0  0  0  0  0  0
   -1.6933   26.3841    5.8467 C   0  0  0  0  0  0  0  0  0  0  0  0
   -1.2474   27.5945    6.2622 O   0  0  0  0  0  0  0  0  0  0  0  0
   -2.8636   26.0032    5.2934 C   0  0  0  0  0  0  0  0  0  0  0  0
  1  2  1  0
  2  3  2  0
  2  4  1  0
  4  5  2  3
  5  6  1  0
  6  7  2  0
  7  8  1  0
  8  9  2  0
  9 10  1  0
 10 11  2  0
 10 12  1  0
 12 13  1  0
 12 14  1  0
 14 15  1  0
 14 16  2  0
 16  5  1  0
 16  9  1  0
M  END
>  <Energy>  (708) 
3.5106179886722781

>  <Energy_Delta>  (708) 
3.4076676217747628

>  <std_smi>  (708) 
CC(=O)Nc1cccc2c1C(=O)N(C)C2=O

>  <enum_smi>  (708) 
CC(=O)N=C1C=CC=C2C(=O)N(C)C(O)=C21

>  <enum_code>  (708) 
T

>  <parent_uuid>  (708) 
cf183151-a3f9-4e16-9f3b-758a388eb19e

>  <o3da_score>  (708) 
78.342770421676647

>  <o3da_score_rel>  (708) 
0.3118939519303644

>  <o3da_align>  (708) 
0.2524804711863472

>  <RMSD>  (708) 
6.3960199879101623e-05

>  <CONVERGED>  (708) 
0

>  <ENERGY>  (708) 
3.5106179885674096

$$$$
7f0d85b2-3585-4acb-8455-91492c9fb053
     RDKit          3D

 16 17  0  0  0  0  0  0  0  0999 V2000
   -3.9905   29.9995    5.8163 C   0  0  0  0  0  0  0  0  0  0  0  0
   -3.7031   28.9137    4.8170 C   0  0  0  0  0  0  0  0  0  0  0  0
   -2.7422   28.9583    4.0545 O   0  0  0  0  0  0  0  0  0  0  0  0
   -4.6555   27.9279    4.7687 N   0  0  0  0  0  0  0  0  0  0  0  0
   -4.2686   26.6952    4.8578 C   0  0  0  0  0  0  0  0  0  0  0  0
   -5.3045   25.6564    4.5341 C   0  0  0  0  0  0  0  0  0  0  0  0
   -4.9773   24.3720    4.3133 C   0  0  0  0  0  0  0  0  0  0  0  0
   -3.5758   23.8320    4.4103 C   0  0  0  0  0  0  0  0  0  0  0  0
   -2.6588   24.8484    4.9666 C   0  0  0  0  0  0  0  0  0  0  0  0
   -2.9432   26.1315    5.2061 C   0  0  0  0  0  0  0  0  0  0  0  0
   -1.8178   26.6880    5.9690 C   0  0  0  0  0  0  0  0  0  0  0  0
   -1.8359   27.7304    6.5998 O   0  0  0  0  0  0  0  0  0  0  0  0
   -0.8306   25.7513    5.9476 N   0  0  0  0  0  0  0  0  0  0  0  0
    0.4134   25.8762    6.6644 C   0  0  0  0  0  0  0  0  0  0  0  0
   -1.3079   24.5805    5.4556 C   0  0  0  0  0  0  0  0  0  0  0  0
   -0.7812   23.4835    5.4439 O   0  0  0  0  0  0  0  0  0  0  0  0
  1  2  1  0
  2  3  2  0
  2  4  1  0
  4  5  2  3
  5  6  1  0
  6  7  2  0
  7  8  1  0
  8  9  1  0
  9 10  2  0
 10 11  1  0
 11 12  2  0
 11 13  1  0
 13 14  1  0
 13 15  1  0
 15 16  2  0
 10  5  1  0
 15  9  1  0
M  END
>  <Energy>  (709) 
-63.160226213648414

>  <Energy_Delta>  (709) 
0

>  <std_smi>  (709) 
CC(=O)Nc1cccc2c1C(=O)N(C)C2=O

>  <enum_smi>  (709) 
CC(=O)N=C1C=CCC2=C1C(=O)N(C)C2=O

>  <enum_code>  (709) 
T

>  <parent_uuid>  (709) 
cf183151-a3f9-4e16-9f3b-758a388eb19e

>  <o3da_score>  (709) 
77.381671716898509

>  <o3da_score_rel>  (709) 
0.30806767834296178

>  <o3da_align>  (709) 
0.4053271507978396

>  <RMSD>  (709) 
7.4136294550318106e-05

>  <CONVERGED>  (709) 
0

>  <ENERGY>  (709) 
-63.160226213773157

$$$$
7f0d85b2-3585-4acb-8455-91492c9fb053
     RDKit          3D

 16 17  0  0  0  0  0  0  0  0999 V2000
   -3.3344   29.9824    4.2828 C   0  0  0  0  0  0  0  0  0  0  0  0
   -3.6715   28.8122    5.1644 C   0  0  0  0  0  0  0  0  0  0  0  0
   -3.3065   28.7428    6.3343 O   0  0  0  0  0  0  0  0  0  0  0  0
   -4.4964   27.8862    4.5785 N   0  0  0  0  0  0  0  0  0  0  0  0
   -4.1398   26.6415    4.6061 C   0  0  0  0  0  0  0  0  0  0  0  0
   -5.1894   25.6482    4.1951 C   0  0  0  0  0  0  0  0  0  0  0  0
   -5.0573   24.3336    4.4395 C   0  0  0  0  0  0  0  0  0  0  0  0
   -3.8505   23.7164    5.0937 C   0  0  0  0  0  0  0  0  0  0  0  0
   -2.7685   24.7113    5.2446 C   0  0  0  0  0  0  0  0  0  0  0  0
   -2.8547   26.0234    5.0085 C   0  0  0  0  0  0  0  0  0  0  0  0
   -1.4891   26.5623    5.0628 C   0  0  0  0  0  0  0  0  0  0  0  0
   -1.1375   27.6463    4.6312 O   0  0  0  0  0  0  0  0  0  0  0  0
   -0.6956   25.5673    5.5453 N   0  0  0  0  0  0  0  0  0  0  0  0
    0.7373   25.6661    5.6634 C   0  0  0  0  0  0  0  0  0  0  0  0
   -1.3798   24.3961    5.5732 C   0  0  0  0  0  0  0  0  0  0  0  0
   -0.9631   23.2707    5.7748 O   0  0  0  0  0  0  0  0  0  0  0  0
  1  2  1  0
  2  3  2  0
  2  4  1  0
  4  5  2  3
  5  6  1  0
  6  7  2  0
  7  8  1  0
  8  9  1  0
  9 10  2  0
 10 11  1  0
 11 12  2  0
 11 13  1  0
 13 14  1  0
 13 15  1  0
 15 16  2  0
 10  5  1  0
 15  9  1  0
M  END
>  <Energy>  (710) 
-63.160226213583627

>  <Energy_Delta>  (710) 
6.4787286646605935e-11

>  <std_smi>  (710) 
CC(=O)Nc1cccc2c1C(=O)N(C)C2=O

>  <enum_smi>  (710) 
CC(=O)N=C1C=CCC2=C1C(=O)N(C)C2=O

>  <enum_code>  (710) 
T

>  <parent_uuid>  (710) 
cf183151-a3f9-4e16-9f3b-758a388eb19e

>  <o3da_score>  (710) 
75.777406286030057

>  <o3da_score_rel>  (710) 
0.30168086456951898

>  <o3da_align>  (710) 
0.4184084216473849

>  <RMSD>  (710) 
5.7070256823380231e-05

>  <CONVERGED>  (710) 
0

>  <ENERGY>  (710) 
-63.160226213788945

$$$$
7f0d85b2-3585-4acb-8455-91492c9fb053
     RDKit          3D

 16 17  0  0  0  0  0  0  0  0999 V2000
   -6.8438   27.1744    3.0868 C   0  0  0  0  0  0  0  0  0  0  0  0
   -6.7474   25.8339    3.7651 C   0  0  0  0  0  0  0  0  0  0  0  0
   -7.7421   25.1413    3.9554 O   0  0  0  0  0  0  0  0  0  0  0  0
   -5.4776   25.5360    4.1809 N   0  0  0  0  0  0  0  0  0  0  0  0
   -5.0182   24.3274    4.1610 C   0  0  0  0  0  0  0  0  0  0  0  0
   -5.7099   23.0909    3.6477 C   0  0  0  0  0  0  0  0  0  0  0  0
   -5.1352   21.8763    3.6953 C   0  0  0  0  0  0  0  0  0  0  0  0
   -3.7644   21.6032    4.2478 C   0  0  0  0  0  0  0  0  0  0  0  0
   -3.1238   22.8512    4.7052 C   0  0  0  0  0  0  0  0  0  0  0  0
   -3.6525   24.0764    4.6751 C   0  0  0  0  0  0  0  0  0  0  0  0
   -2.6504   25.0101    5.2091 C   0  0  0  0  0  0  0  0  0  0  0  0
   -2.7547   26.2205    5.2848 O   0  0  0  0  0  0  0  0  0  0  0  0
   -1.5765   24.2534    5.5732 N   0  0  0  0  0  0  0  0  0  0  0  0
   -0.3495   24.7924    6.1039 C   0  0  0  0  0  0  0  0  0  0  0  0
   -1.7768   22.9487    5.2615 C   0  0  0  0  0  0  0  0  0  0  0  0
   -1.0177   22.0056    5.3842 O   0  0  0  0  0  0  0  0  0  0  0  0
  1  2  1  0
  2  3  2  0
  2  4  1  0
  4  5  2  3
  5  6  1  0
  6  7  2  0
  7  8  1  0
  8  9  1  0
  9 10  2  0
 10 11  1  0
 11 12  2  0
 11 13  1  0
 13 14  1  0
 13 15  1  0
 15 16  2  0
 10  5  1  0
 15  9  1  0
M  END
>  <Energy>  (711) 
-62.975856165836696

>  <Energy_Delta>  (711) 
0.18437004781171851

>  <std_smi>  (711) 
CC(=O)Nc1cccc2c1C(=O)N(C)C2=O

>  <enum_smi>  (711) 
CC(=O)N=C1C=CCC2=C1C(=O)N(C)C2=O

>  <enum_code>  (711) 
T

>  <parent_uuid>  (711) 
cf183151-a3f9-4e16-9f3b-758a388eb19e

>  <o3da_score>  (711) 
69.868145881805944

>  <o3da_score_rel>  (711) 
0.27815524030911981

>  <o3da_align>  (711) 
0.28282339085316049

>  <RMSD>  (711) 
5.9299642305559532e-05

>  <CONVERGED>  (711) 
0

>  <ENERGY>  (711) 
-62.975856165857913

$$$$
7f0d85b2-3585-4acb-8455-91492c9fb053
     RDKit          3D

 16 17  0  0  0  0  0  0  0  0999 V2000
    0.1775   32.7329    1.8062 C   0  0  0  0  0  0  0  0  0  0  0  0
   -1.0244   32.5993    2.7027 C   0  0  0  0  0  0  0  0  0  0  0  0
   -1.4755   33.5628    3.3140 O   0  0  0  0  0  0  0  0  0  0  0  0
   -1.5607   31.3399    2.6927 N   0  0  0  0  0  0  0  0  0  0  0  0
   -2.0872   30.8132    3.7498 C   0  0  0  0  0  0  0  0  0  0  0  0
   -2.1545   31.4052    5.1340 C   0  0  0  0  0  0  0  0  0  0  0  0
   -2.7471   30.7670    6.1583 C   0  0  0  0  0  0  0  0  0  0  0  0
   -3.3977   29.4158    6.0586 C   0  0  0  0  0  0  0  0  0  0  0  0
   -3.2739   28.8723    4.6925 C   0  0  0  0  0  0  0  0  0  0  0  0
   -2.6935   29.4662    3.6475 C   0  0  0  0  0  0  0  0  0  0  0  0
   -2.7861   28.5490    2.5025 C   0  0  0  0  0  0  0  0  0  0  0  0
   -2.3178   28.7249    1.3927 O   0  0  0  0  0  0  0  0  0  0  0  0
   -3.4734   27.4563    2.9407 N   0  0  0  0  0  0  0  0  0  0  0  0
   -3.7427   26.2926    2.1337 C   0  0  0  0  0  0  0  0  0  0  0  0
   -3.7639   27.5657    4.2609 C   0  0  0  0  0  0  0  0  0  0  0  0
   -4.3088   26.7630    4.9954 O   0  0  0  0  0  0  0  0  0  0  0  0
  1  2  1  0
  2  3  2  0
  2  4  1  0
  4  5  2  3
  5  6  1  0
  6  7  2  0
  7  8  1  0
  8  9  1  0
  9 10  2  0
 10 11  1  0
 11 12  2  0
 11 13  1  0
 13 14  1  0
 13 15  1  0
 15 16  2  0
 10  5  1  0
 15  9  1  0
M  END
>  <Energy>  (712) 
-62.975856165721552

>  <Energy_Delta>  (712) 
0.18437004792686196

>  <std_smi>  (712) 
CC(=O)Nc1cccc2c1C(=O)N(C)C2=O

>  <enum_smi>  (712) 
CC(=O)N=C1C=CCC2=C1C(=O)N(C)C2=O

>  <enum_code>  (712) 
T

>  <parent_uuid>  (712) 
cf183151-a3f9-4e16-9f3b-758a388eb19e

>  <o3da_score>  (712) 
76.576394897587676

>  <o3da_score_rel>  (712) 
0.30486175432188228

>  <o3da_align>  (712) 
0.50613260951984218

>  <RMSD>  (712) 
7.6358737851201555e-05

>  <CONVERGED>  (712) 
0

>  <ENERGY>  (712) 
-62.975856165894854

$$$$
62ea1230-9af0-435a-99af-f37c28b9a412
     RDKit          3D

 16 17  0  0  0  0  0  0  0  0999 V2000
   -5.8532   29.8648    4.9361 C   0  0  0  0  0  0  0  0  0  0  0  0
   -5.8179   28.3924    4.6201 C   0  0  0  0  0  0  0  0  0  0  0  0
   -6.7873   27.8293    4.1234 O   0  0  0  0  0  0  0  0  0  0  0  0
   -4.6165   27.8163    4.9431 N   0  0  0  0  0  0  0  0  0  0  0  0
   -4.3872   26.5443    4.8049 C   0  0  0  0  0  0  0  0  0  0  0  0
   -5.4056   25.5116    4.2720 C   0  0  0  0  0  0  0  0  0  0  0  0
   -4.9055   24.0892    4.2205 C   0  0  0  0  0  0  0  0  0  0  0  0
   -3.6698   23.7295    4.5949 C   0  0  0  0  0  0  0  0  0  0  0  0
   -2.7658   24.7289    5.0701 C   0  0  0  0  0  0  0  0  0  0  0  0
   -3.0540   26.0262    5.1824 C   0  0  0  0  0  0  0  0  0  0  0  0
   -1.8707   26.7098    5.7165 C   0  0  0  0  0  0  0  0  0  0  0  0
   -1.7804   27.8941    5.9835 O   0  0  0  0  0  0  0  0  0  0  0  0
   -0.9072   25.7576    5.8660 N   0  0  0  0  0  0  0  0  0  0  0  0
    0.4047   26.0101    6.4074 C   0  0  0  0  0  0  0  0  0  0  0  0
   -1.3814   24.5310    5.5270 C   0  0  0  0  0  0  0  0  0  0  0  0
   -0.8152   23.4543    5.5840 O   0  0  0  0  0  0  0  0  0  0  0  0
  1  2  1  0
  2  3  2  0
  2  4  1  0
  4  5  2  3
  5  6  1  0
  6  7  1  0
  7  8  2  0
  8  9  1  0
  9 10  2  0
 10 11  1  0
 11 12  2  0
 11 13  1  0
 13 14  1  0
 13 15  1  0
 15 16  2  0
 10  5  1  0
 15  9  1  0
M  END
>  <Energy>  (713) 
-34.591670905191812

>  <Energy_Delta>  (713) 
0

>  <std_smi>  (713) 
CC(=O)Nc1cccc2c1C(=O)N(C)C2=O

>  <enum_smi>  (713) 
CC(=O)N=C1CC=CC2=C1C(=O)N(C)C2=O

>  <enum_code>  (713) 
T

>  <parent_uuid>  (713) 
cf183151-a3f9-4e16-9f3b-758a388eb19e

>  <o3da_score>  (713) 
69.943124535298509

>  <o3da_score_rel>  (713) 
0.27845374122276301

>  <o3da_align>  (713) 
0.3209064304683531

>  <RMSD>  (713) 
0.053688221038409159

>  <CONVERGED>  (713) 
0

>  <ENERGY>  (713) 
-34.591670905307907

$$$$
62ea1230-9af0-435a-99af-f37c28b9a412
     RDKit          3D

 16 17  0  0  0  0  0  0  0  0999 V2000
   -1.7000   23.5591    5.5867 C   0  0  0  0  0  0  0  0  0  0  0  0
   -3.1465   23.8971    5.8180 C   0  0  0  0  0  0  0  0  0  0  0  0
   -3.5359   24.4620    6.8355 O   0  0  0  0  0  0  0  0  0  0  0  0
   -3.9936   23.4404    4.8400 N   0  0  0  0  0  0  0  0  0  0  0  0
   -4.8507   24.2668    4.3283 C   0  0  0  0  0  0  0  0  0  0  0  0
   -5.9321   23.6261    3.4291 C   0  0  0  0  0  0  0  0  0  0  0  0
   -7.1930   24.4457    3.3167 C   0  0  0  0  0  0  0  0  0  0  0  0
   -7.2610   25.7292    3.7020 C   0  0  0  0  0  0  0  0  0  0  0  0
   -6.0830   26.3667    4.2053 C   0  0  0  0  0  0  0  0  0  0  0  0
   -4.9431   25.7366    4.4954 C   0  0  0  0  0  0  0  0  0  0  0  0
   -3.9427   26.7583    4.8156 C   0  0  0  0  0  0  0  0  0  0  0  0
   -2.7392   26.5734    4.8671 O   0  0  0  0  0  0  0  0  0  0  0  0
   -4.6067   27.9429    4.9040 N   0  0  0  0  0  0  0  0  0  0  0  0
   -3.9652   29.2141    5.1257 C   0  0  0  0  0  0  0  0  0  0  0  0
   -5.8825   27.8027    4.4569 C   0  0  0  0  0  0  0  0  0  0  0  0
   -6.7130   28.6680    4.2453 O   0  0  0  0  0  0  0  0  0  0  0  0
  1  2  1  0
  2  3  2  0
  2  4  1  0
  4  5  2  3
  5  6  1  0
  6  7  1  0
  7  8  2  0
  8  9  1  0
  9 10  2  0
 10 11  1  0
 11 12  2  0
 11 13  1  0
 13 14  1  0
 13 15  1  0
 15 16  2  0
 10  5  1  0
 15  9  1  0
M  END
>  <Energy>  (714) 
-31.98290537052365

>  <Energy_Delta>  (714) 
2.6087655346681622

>  <std_smi>  (714) 
CC(=O)Nc1cccc2c1C(=O)N(C)C2=O

>  <enum_smi>  (714) 
CC(=O)N=C1CC=CC2=C1C(=O)N(C)C2=O

>  <enum_code>  (714) 
T

>  <parent_uuid>  (714) 
cf183151-a3f9-4e16-9f3b-758a388eb19e

>  <o3da_score>  (714) 
76.047603543187378

>  <o3da_score_rel>  (714) 
0.30275655910881016

>  <o3da_align>  (714) 
0.48428172610170306

>  <RMSD>  (714) 
6.0764472477942617e-05

>  <CONVERGED>  (714) 
0

>  <ENERGY>  (714) 
-31.982905370674256

$$$$
62ea1230-9af0-435a-99af-f37c28b9a412
     RDKit          3D

 16 17  0  0  0  0  0  0  0  0999 V2000
   -2.0245   29.8022    4.9637 C   0  0  0  0  0  0  0  0  0  0  0  0
   -1.8808   28.4604    4.3013 C   0  0  0  0  0  0  0  0  0  0  0  0
   -2.2087   28.2635    3.1351 O   0  0  0  0  0  0  0  0  0  0  0  0
   -1.2723   27.5104    5.0823 N   0  0  0  0  0  0  0  0  0  0  0  0
   -1.8367   26.3494    5.1969 C   0  0  0  0  0  0  0  0  0  0  0  0
   -0.9751   25.2587    5.8727 C   0  0  0  0  0  0  0  0  0  0  0  0
   -1.3745   23.8525    5.5023 C   0  0  0  0  0  0  0  0  0  0  0  0
   -2.5368   23.5637    4.8973 C   0  0  0  0  0  0  0  0  0  0  0  0
   -3.4592   24.6227    4.6233 C   0  0  0  0  0  0  0  0  0  0  0  0
   -3.1869   25.9218    4.7601 C   0  0  0  0  0  0  0  0  0  0  0  0
   -4.4348   26.6597    4.5463 C   0  0  0  0  0  0  0  0  0  0  0  0
   -4.6245   27.8247    4.8495 O   0  0  0  0  0  0  0  0  0  0  0  0
   -5.3460   25.7622    4.0813 N   0  0  0  0  0  0  0  0  0  0  0  0
   -6.7286   26.0752    3.8223 C   0  0  0  0  0  0  0  0  0  0  0  0
   -4.8601   24.4976    4.1902 C   0  0  0  0  0  0  0  0  0  0  0  0
   -5.4435   23.4421    4.0206 O   0  0  0  0  0  0  0  0  0  0  0  0
  1  2  1  0
  2  3  2  0
  2  4  1  0
  4  5  2  3
  5  6  1  0
  6  7  1  0
  7  8  2  0
  8  9  1  0
  9 10  2  0
 10 11  1  0
 11 12  2  0
 11 13  1  0
 13 14  1  0
 13 15  1  0
 15 16  2  0
 10  5  1  0
 15  9  1  0
M  END
>  <Energy>  (715) 
-31.982905370436448

>  <Energy_Delta>  (715) 
2.6087655347553635

>  <std_smi>  (715) 
CC(=O)Nc1cccc2c1C(=O)N(C)C2=O

>  <enum_smi>  (715) 
CC(=O)N=C1CC=CC2=C1C(=O)N(C)C2=O

>  <enum_code>  (715) 
T

>  <parent_uuid>  (715) 
cf183151-a3f9-4e16-9f3b-758a388eb19e

>  <o3da_score>  (715) 
74.621524963684678

>  <o3da_score_rel>  (715) 
0.29707913308046963

>  <o3da_align>  (715) 
0.47026666824540669

>  <RMSD>  (715) 
7.1923421011579897e-05

>  <CONVERGED>  (715) 
0

>  <ENERGY>  (715) 
-31.982905370666145

$$$$
63716021-6346-489c-8c78-600813909054
     RDKit          3D

 16 17  0  0  0  0  0  0  0  0999 V2000
   -2.8391   28.8599    2.4707 C   0  0  0  0  0  0  0  0  0  0  0  0
   -3.0548   29.4404    3.8299 C   0  0  0  0  0  0  0  0  0  0  0  0
   -2.3487   30.5561    4.0591 O   0  0  0  0  0  0  0  0  0  0  0  0
   -3.8100   29.0209    4.7883 N   0  0  0  0  0  0  0  0  0  0  0  0
   -4.5476   27.8445    4.6081 C   0  0  0  0  0  0  0  0  0  0  0  0
   -5.9185   27.9327    4.3161 C   0  0  0  0  0  0  0  0  0  0  0  0
   -6.7198   26.7815    4.1731 C   0  0  0  0  0  0  0  0  0  0  0  0
   -6.1681   25.5108    4.3354 C   0  0  0  0  0  0  0  0  0  0  0  0
   -4.8218   25.4427    4.6407 C   0  0  0  0  0  0  0  0  0  0  0  0
   -4.0274   26.5711    4.7750 C   0  0  0  0  0  0  0  0  0  0  0  0
   -2.6709   26.1072    5.0836 C   0  0  0  0  0  0  0  0  0  0  0  0
   -1.6890   26.8161    5.1968 O   0  0  0  0  0  0  0  0  0  0  0  0
   -2.7348   24.7415    5.1637 N   0  0  0  0  0  0  0  0  0  0  0  0
   -1.5889   23.8997    5.4037 C   0  0  0  0  0  0  0  0  0  0  0  0
   -3.9823   24.2704    4.8735 C   0  0  0  0  0  0  0  0  0  0  0  0
   -4.3755   23.1229    4.7910 O   0  0  0  0  0  0  0  0  0  0  0  0
  1  2  1  0
  2  3  1  0
  2  4  2  3
  4  5  1  0
  5  6  2  0
  6  7  1  0
  7  8  2  0
  8  9  1  0
  9 10  2  0
 10 11  1  0
 11 12  2  0
 11 13  1  0
 13 14  1  0
 13 15  1  0
 15 16  2  0
 10  5  1  0
 15  9  1  0
M  END
>  <Energy>  (716) 
-30.206124079969623

>  <Energy_Delta>  (716) 
0

>  <std_smi>  (716) 
CC(=O)Nc1cccc2c1C(=O)N(C)C2=O

>  <enum_smi>  (716) 
CC(O)=Nc1cccc2c1C(=O)N(C)C2=O

>  <enum_code>  (716) 
T

>  <parent_uuid>  (716) 
cf183151-a3f9-4e16-9f3b-758a388eb19e

>  <o3da_score>  (716) 
74.074324654710523

>  <o3da_score_rel>  (716) 
0.29490064914449376

>  <o3da_align>  (716) 
0.40888047339227768

>  <RMSD>  (716) 
6.4770039360535778e-05

>  <CONVERGED>  (716) 
0

>  <ENERGY>  (716) 
-30.20612408009783

$$$$
63716021-6346-489c-8c78-600813909054
     RDKit          3D

 16 17  0  0  0  0  0  0  0  0999 V2000
   -6.4880   27.8013    6.1672 C   0  0  0  0  0  0  0  0  0  0  0  0
   -6.0999   28.3542    4.8350 C   0  0  0  0  0  0  0  0  0  0  0  0
   -6.0740   29.6934    4.7926 O   0  0  0  0  0  0  0  0  0  0  0  0
   -5.7932   27.7302    3.7481 N   0  0  0  0  0  0  0  0  0  0  0  0
   -5.7793   26.3302    3.7481 C   0  0  0  0  0  0  0  0  0  0  0  0
   -6.8596   25.6338    3.1819 C   0  0  0  0  0  0  0  0  0  0  0  0
   -6.8762   24.2258    3.1105 C   0  0  0  0  0  0  0  0  0  0  0  0
   -5.8003   23.4803    3.5920 C   0  0  0  0  0  0  0  0  0  0  0  0
   -4.7375   24.1820    4.1291 C   0  0  0  0  0  0  0  0  0  0  0  0
   -4.7192   25.5662    4.2087 C   0  0  0  0  0  0  0  0  0  0  0  0
   -3.4511   25.9432    4.8415 C   0  0  0  0  0  0  0  0  0  0  0  0
   -3.1187   27.0739    5.1422 O   0  0  0  0  0  0  0  0  0  0  0  0
   -2.7640   24.7790    5.0616 N   0  0  0  0  0  0  0  0  0  0  0  0
   -1.4814   24.7189    5.7178 C   0  0  0  0  0  0  0  0  0  0  0  0
   -3.4874   23.6816    4.6947 C   0  0  0  0  0  0  0  0  0  0  0  0
   -3.2131   22.5023    4.8058 O   0  0  0  0  0  0  0  0  0  0  0  0
  1  2  1  0
  2  3  1  0
  2  4  2  3
  4  5  1  0
  5  6  2  0
  6  7  1  0
  7  8  2  0
  8  9  1  0
  9 10  2  0
 10 11  1  0
 11 12  2  0
 11 13  1  0
 13 14  1  0
 13 15  1  0
 15 16  2  0
 10  5  1  0
 15  9  1  0
M  END
>  <Energy>  (717) 
-30.20612407996634

>  <Energy_Delta>  (717) 
3.2827074392116629e-12

>  <std_smi>  (717) 
CC(=O)Nc1cccc2c1C(=O)N(C)C2=O

>  <enum_smi>  (717) 
CC(O)=Nc1cccc2c1C(=O)N(C)C2=O

>  <enum_code>  (717) 
T

>  <parent_uuid>  (717) 
cf183151-a3f9-4e16-9f3b-758a388eb19e

>  <o3da_score>  (717) 
70.11862602670702

>  <o3da_score_rel>  (717) 
0.2791524381597037

>  <o3da_align>  (717) 
0.3357876153029738

>  <RMSD>  (717) 
5.193476894090644e-05

>  <CONVERGED>  (717) 
0

>  <ENERGY>  (717) 
-30.206124080107958

$$$$
63716021-6346-489c-8c78-600813909054
     RDKit          3D

 16 17  0  0  0  0  0  0  0  0999 V2000
   -2.3263   30.4400    4.1001 C   0  0  0  0  0  0  0  0  0  0  0  0
   -2.8462   29.0554    3.8971 C   0  0  0  0  0  0  0  0  0  0  0  0
   -2.5593   28.5712    2.6735 O   0  0  0  0  0  0  0  0  0  0  0  0
   -3.5203   28.4293    4.8033 N   0  0  0  0  0  0  0  0  0  0  0  0
   -3.9607   27.1187    4.6059 C   0  0  0  0  0  0  0  0  0  0  0  0
   -5.2774   26.8872    4.1780 C   0  0  0  0  0  0  0  0  0  0  0  0
   -5.7803   25.5807    4.0131 C   0  0  0  0  0  0  0  0  0  0  0  0
   -4.9780   24.4731    4.2889 C   0  0  0  0  0  0  0  0  0  0  0  0
   -3.6899   24.7201    4.7256 C   0  0  0  0  0  0  0  0  0  0  0  0
   -3.1868   26.0025    4.8800 C   0  0  0  0  0  0  0  0  0  0  0  0
   -1.7972   25.8684    5.3305 C   0  0  0  0  0  0  0  0  0  0  0  0
   -1.0114   26.7830    5.4866 O   0  0  0  0  0  0  0  0  0  0  0  0
   -1.5636   24.5263    5.4749 N   0  0  0  0  0  0  0  0  0  0  0  0
   -0.2870   23.9737    5.8552 C   0  0  0  0  0  0  0  0  0  0  0  0
   -2.6372   23.7761    5.0915 C   0  0  0  0  0  0  0  0  0  0  0  0
   -2.7519   22.5678    5.0219 O   0  0  0  0  0  0  0  0  0  0  0  0
  1  2  1  0
  2  3  1  0
  2  4  2  3
  4  5  1  0
  5  6  2  0
  6  7  1  0
  7  8  2  0
  8  9  1  0
  9 10  2  0
 10 11  1  0
 11 12  2  0
 11 13  1  0
 13 14  1  0
 13 15  1  0
 15 16  2  0
 10  5  1  0
 15  9  1  0
M  END
>  <Energy>  (718) 
-25.031645167678121

>  <Energy_Delta>  (718) 
5.1744789122915016

>  <std_smi>  (718) 
CC(=O)Nc1cccc2c1C(=O)N(C)C2=O

>  <enum_smi>  (718) 
CC(O)=Nc1cccc2c1C(=O)N(C)C2=O

>  <enum_code>  (718) 
T

>  <parent_uuid>  (718) 
cf183151-a3f9-4e16-9f3b-758a388eb19e

>  <o3da_score>  (718) 
75.118001704279308

>  <o3da_score_rel>  (718) 
0.29905567912080111

>  <o3da_align>  (718) 
0.5929600387398658

>  <RMSD>  (718) 
6.3707300261914187e-05

>  <CONVERGED>  (718) 
0

>  <ENERGY>  (718) 
-25.03164516770801

$$$$
63716021-6346-489c-8c78-600813909054
     RDKit          3D

 16 17  0  0  0  0  0  0  0  0999 V2000
   -6.7521   21.9668    1.9351 C   0  0  0  0  0  0  0  0  0  0  0  0
   -5.7852   22.9759    2.4602 C   0  0  0  0  0  0  0  0  0  0  0  0
   -4.9448   23.4279    1.5098 O   0  0  0  0  0  0  0  0  0  0  0  0
   -5.7989   23.3738    3.6886 N   0  0  0  0  0  0  0  0  0  0  0  0
   -4.8577   24.2880    4.1669 C   0  0  0  0  0  0  0  0  0  0  0  0
   -5.1922   25.6490    4.2472 C   0  0  0  0  0  0  0  0  0  0  0  0
   -4.2921   26.6000    4.7693 C   0  0  0  0  0  0  0  0  0  0  0  0
   -3.0389   26.2059    5.2387 C   0  0  0  0  0  0  0  0  0  0  0  0
   -2.7333   24.8596    5.1676 C   0  0  0  0  0  0  0  0  0  0  0  0
   -3.6103   23.9213    4.6461 C   0  0  0  0  0  0  0  0  0  0  0  0
   -2.9379   22.6194    4.7135 C   0  0  0  0  0  0  0  0  0  0  0  0
   -3.3693   21.5748    4.2650 O   0  0  0  0  0  0  0  0  0  0  0  0
   -1.7284   22.8378    5.3186 N   0  0  0  0  0  0  0  0  0  0  0  0
   -0.7404   21.8078    5.5250 C   0  0  0  0  0  0  0  0  0  0  0  0
   -1.5193   24.1606    5.5810 C   0  0  0  0  0  0  0  0  0  0  0  0
   -0.5386   24.7130    6.0404 O   0  0  0  0  0  0  0  0  0  0  0  0
  1  2  1  0
  2  3  1  0
  2  4  2  3
  4  5  1  0
  5  6  2  0
  6  7  1  0
  7  8  2  0
  8  9  1  0
  9 10  2  0
 10 11  1  0
 11 12  2  0
 11 13  1  0
 13 14  1  0
 13 15  1  0
 15 16  2  0
 10  5  1  0
 15  9  1  0
M  END
>  <Energy>  (719) 
-25.031645167659853

>  <Energy_Delta>  (719) 
5.1744789123097696

>  <std_smi>  (719) 
CC(=O)Nc1cccc2c1C(=O)N(C)C2=O

>  <enum_smi>  (719) 
CC(O)=Nc1cccc2c1C(=O)N(C)C2=O

>  <enum_code>  (719) 
T

>  <parent_uuid>  (719) 
cf183151-a3f9-4e16-9f3b-758a388eb19e

>  <o3da_score>  (719) 
68.919810811855697

>  <o3da_score_rel>  (719) 
0.27437978060647056

>  <o3da_align>  (719) 
0.16880749554726129

>  <RMSD>  (719) 
6.764956505760886e-05

>  <CONVERGED>  (719) 
0

>  <ENERGY>  (719) 
-25.031645167726438

$$$$
54c8ebb3-81ec-4ba0-a204-1fd7a411843a
     RDKit          3D

 16 17  0  0  0  0  0  0  0  0999 V2000
   -4.5088   30.2982    4.8872 C   0  0  0  0  0  0  0  0  0  0  0  0
   -3.8286   28.9724    5.1197 C   0  0  0  0  0  0  0  0  0  0  0  0
   -2.7515   28.9029    5.6974 O   0  0  0  0  0  0  0  0  0  0  0  0
   -4.5695   27.8990    4.6462 N   0  0  0  0  0  0  0  0  0  0  0  0
   -4.2051   26.5341    4.7009 C   0  0  0  0  0  0  0  0  0  0  0  0
   -2.9911   26.0562    5.2126 C   0  0  0  0  0  0  0  0  0  0  0  0
   -2.6817   24.6746    5.2297 C   0  0  0  0  0  0  0  0  0  0  0  0
   -3.5770   23.7269    4.7354 C   0  0  0  0  0  0  0  0  0  0  0  0
   -4.7678   24.2089    4.2394 C   0  0  0  0  0  0  0  0  0  0  0  0
   -5.0708   25.5649    4.2224 C   0  0  0  0  0  0  0  0  0  0  0  0
   -6.3937   25.6912    3.6240 C   0  0  0  0  0  0  0  0  0  0  0  0
   -7.0136   26.6967    3.3663 O   0  0  0  0  0  0  0  0  0  0  0  0
   -6.9815   24.4028    3.2860 N   0  0  0  0  0  4  0  0  0  0  0  0
   -8.2588   24.1167    3.9645 C   0  0  0  0  0  0  0  0  0  0  0  0
   -5.8985   23.4971    3.6488 C   0  0  0  0  0  0  0  0  0  0  0  0
   -6.0331   22.3236    3.4040 O   0  0  0  0  0  0  0  0  0  0  0  0
  1  2  1  0
  2  3  2  0
  2  4  1  0
  4  5  1  0
  5  6  2  0
  6  7  1  0
  7  8  2  0
  8  9  1  0
  9 10  2  0
 10 11  1  0
 11 12  2  0
 11 13  1  0
 13 14  1  0
 13 15  1  0
 15 16  2  0
 10  5  1  0
 15  9  1  0
M  CHG  1  13   1
M  END
>  <Energy>  (720) 
-97.474524211811939

>  <Energy_Delta>  (720) 
0

>  <std_smi>  (720) 
CC(=O)Nc1cccc2c1C(=O)N(C)C2=O

>  <enum_smi>  (720) 
CC(=O)Nc1cccc2c1C(=O)[NH+](C)C2=O

>  <enum_code>  (720) 
M

>  <parent_uuid>  (720) 
cf183151-a3f9-4e16-9f3b-758a388eb19e

>  <o3da_score>  (720) 
71.902283220769746

>  <o3da_score_rel>  (720) 
0.28625343660730679

>  <o3da_align>  (720) 
0.23020635067385262

>  <RMSD>  (720) 
5.9588430106516767e-05

>  <CONVERGED>  (720) 
0

>  <ENERGY>  (720) 
-97.47452421183921

$$$$
54c8ebb3-81ec-4ba0-a204-1fd7a411843a
     RDKit          3D

 16 17  0  0  0  0  0  0  0  0999 V2000
   -0.8958   32.4647    2.1476 C   0  0  0  0  0  0  0  0  0  0  0  0
   -1.0658   31.0458    1.6653 C   0  0  0  0  0  0  0  0  0  0  0  0
   -0.5360   30.6575    0.6323 O   0  0  0  0  0  0  0  0  0  0  0  0
   -1.8901   30.2940    2.4903 N   0  0  0  0  0  0  0  0  0  0  0  0
   -2.2379   28.9342    2.3207 C   0  0  0  0  0  0  0  0  0  0  0  0
   -1.7525   28.1124    1.2946 C   0  0  0  0  0  0  0  0  0  0  0  0
   -2.1326   26.7528    1.1856 C   0  0  0  0  0  0  0  0  0  0  0  0
   -3.0103   26.1719    2.0999 C   0  0  0  0  0  0  0  0  0  0  0  0
   -3.4834   26.9909    3.1008 C   0  0  0  0  0  0  0  0  0  0  0  0
   -3.1098   28.3250    3.2075 C   0  0  0  0  0  0  0  0  0  0  0  0
   -3.7940   28.8594    4.3782 C   0  0  0  0  0  0  0  0  0  0  0  0
   -3.7074   29.9622    4.8662 O   0  0  0  0  0  0  0  0  0  0  0  0
   -4.6582   27.8784    5.0189 N   0  0  0  0  0  4  0  0  0  0  0  0
   -6.0804   28.2626    5.0780 C   0  0  0  0  0  0  0  0  0  0  0  0
   -4.3935   26.6983    4.2054 C   0  0  0  0  0  0  0  0  0  0  0  0
   -4.9018   25.6551    4.5351 O   0  0  0  0  0  0  0  0  0  0  0  0
  1  2  1  0
  2  3  2  0
  2  4  1  0
  4  5  1  0
  5  6  2  0
  6  7  1  0
  7  8  2  0
  8  9  1  0
  9 10  2  0
 10 11  1  0
 11 12  2  0
 11 13  1  0
 13 14  1  0
 13 15  1  0
 15 16  2  0
 10  5  1  0
 15  9  1  0
M  CHG  1  13   1
M  END
>  <Energy>  (721) 
-97.474524211772419

>  <Energy_Delta>  (721) 
3.9520386962976772e-11

>  <std_smi>  (721) 
CC(=O)Nc1cccc2c1C(=O)N(C)C2=O

>  <enum_smi>  (721) 
CC(=O)Nc1cccc2c1C(=O)[NH+](C)C2=O

>  <enum_code>  (721) 
M

>  <parent_uuid>  (721) 
cf183151-a3f9-4e16-9f3b-758a388eb19e

>  <o3da_score>  (721) 
78.542583657375374

>  <o3da_score_rel>  (721) 
0.31268943745372069

>  <o3da_align>  (721) 
0.54554578063289372

>  <RMSD>  (721) 
6.0377828201926407e-05

>  <CONVERGED>  (721) 
0

>  <ENERGY>  (721) 
-97.474524211846344

$$$$
c1bf1297-5cb6-4137-b3a7-8773c51040f3
     RDKit          3D

 16 17  0  0  0  0  0  0  0  0999 V2000
   -5.5733   22.7323    3.8589 C   0  0  0  0  0  0  0  0  0  0  0  0
   -4.9519   23.9357    4.5262 C   0  0  0  0  0  0  0  0  0  0  0  0
   -5.6562   24.7992    5.0597 O   0  0  0  0  0  0  0  0  0  0  0  0
   -3.6116   23.8855    4.4233 N   0  0  0  0  0  2  0  0  0  0  0  0
   -2.9419   24.8992    5.0092 C   0  0  0  0  0  0  0  0  0  0  0  0
   -1.8773   24.6366    5.8902 C   0  0  0  0  0  0  0  0  0  0  0  0
   -1.2623   25.6546    6.6530 C   0  0  0  0  0  0  0  0  0  0  0  0
   -1.7122   26.9714    6.5771 C   0  0  0  0  0  0  0  0  0  0  0  0
   -2.7323   27.2187    5.6826 C   0  0  0  0  0  0  0  0  0  0  0  0
   -3.2741   26.2351    4.8695 C   0  0  0  0  0  0  0  0  0  0  0  0
   -4.2509   26.9015    3.9920 C   0  0  0  0  0  0  0  0  0  0  0  0
   -4.6508   26.6875    2.8717 O   0  0  0  0  0  0  0  0  0  0  0  0
   -4.6051   28.2111    4.5269 N   0  0  0  0  0  4  0  0  0  0  0  0
   -5.9315   28.1817    5.1602 C   0  0  0  0  0  0  0  0  0  0  0  0
   -3.4979   28.4329    5.4347 C   0  0  0  0  0  0  0  0  0  0  0  0
   -3.3291   29.5548    5.8549 O   0  0  0  0  0  0  0  0  0  0  0  0
  1  2  1  0
  2  3  2  0
  2  4  1  0
  4  5  1  0
  5  6  2  0
  6  7  1  0
  7  8  2  0
  8  9  1  0
  9 10  2  0
 10 11  1  0
 11 12  2  0
 11 13  1  0
 13 14  1  0
 13 15  1  0
 15 16  2  0
 10  5  1  0
 15  9  1  0
M  CHG  2   4  -1  13   1
M  END
>  <Energy>  (722) 
-123.71588856928126

>  <Energy_Delta>  (722) 
0

>  <std_smi>  (722) 
CC(=O)Nc1cccc2c1C(=O)N(C)C2=O

>  <enum_smi>  (722) 
CC(=O)[N-]c1cccc2c1C(=O)[NH+](C)C2=O

>  <enum_code>  (722) 
M

>  <parent_uuid>  (722) 
cf183151-a3f9-4e16-9f3b-758a388eb19e

>  <o3da_score>  (722) 
70.421834734552974

>  <o3da_score_rel>  (722) 
0.28035955608061414

>  <o3da_align>  (722) 
0.571678498768312

>  <RMSD>  (722) 
7.2093930722057613e-05

>  <CONVERGED>  (722) 
0

>  <ENERGY>  (722) 
-123.7158885694999

$$$$
c1bf1297-5cb6-4137-b3a7-8773c51040f3
     RDKit          3D

 16 17  0  0  0  0  0  0  0  0999 V2000
   -3.9336   30.1530    4.8306 C   0  0  0  0  0  0  0  0  0  0  0  0
   -3.5145   28.7076    4.7083 C   0  0  0  0  0  0  0  0  0  0  0  0
   -2.3704   28.4070    4.3523 O   0  0  0  0  0  0  0  0  0  0  0  0
   -4.5348   27.8967    5.0416 N   0  0  0  0  0  2  0  0  0  0  0  0
   -4.2864   26.5745    4.9441 C   0  0  0  0  0  0  0  0  0  0  0  0
   -5.1685   25.7322    4.2433 C   0  0  0  0  0  0  0  0  0  0  0  0
   -4.8627   24.3796    3.9725 C   0  0  0  0  0  0  0  0  0  0  0  0
   -3.6466   23.8303    4.3743 C   0  0  0  0  0  0  0  0  0  0  0  0
   -2.8085   24.6583    5.0912 C   0  0  0  0  0  0  0  0  0  0  0  0
   -3.1484   25.9581    5.4336 C   0  0  0  0  0  0  0  0  0  0  0  0
   -2.0559   26.4739    6.2753 C   0  0  0  0  0  0  0  0  0  0  0  0
   -2.0022   27.2809    7.1736 O   0  0  0  0  0  0  0  0  0  0  0  0
   -0.8640   25.6471    6.1252 N   0  0  0  0  0  4  0  0  0  0  0  0
    0.1358   26.3112    5.2764 C   0  0  0  0  0  0  0  0  0  0  0  0
   -1.4460   24.4463    5.5608 C   0  0  0  0  0  0  0  0  0  0  0  0
   -0.7726   23.4413    5.5569 O   0  0  0  0  0  0  0  0  0  0  0  0
  1  2  1  0
  2  3  2  0
  2  4  1  0
  4  5  1  0
  5  6  2  0
  6  7  1  0
  7  8  2  0
  8  9  1  0
  9 10  2  0
 10 11  1  0
 11 12  2  0
 11 13  1  0
 13 14  1  0
 13 15  1  0
 15 16  2  0
 10  5  1  0
 15  9  1  0
M  CHG  2   4  -1  13   1
M  END
>  <Energy>  (723) 
-123.71588856878826

>  <Energy_Delta>  (723) 
4.9300297177978791e-10

>  <std_smi>  (723) 
CC(=O)Nc1cccc2c1C(=O)N(C)C2=O

>  <enum_smi>  (723) 
CC(=O)[N-]c1cccc2c1C(=O)[NH+](C)C2=O

>  <enum_code>  (723) 
M

>  <parent_uuid>  (723) 
cf183151-a3f9-4e16-9f3b-758a388eb19e

>  <o3da_score>  (723) 
68.807773108381767

>  <o3da_score_rel>  (723) 
0.27393374223032424

>  <o3da_align>  (723) 
0.31125018981483921

>  <RMSD>  (723) 
5.2383768498330148e-05

>  <CONVERGED>  (723) 
0

>  <ENERGY>  (723) 
-123.71588856948638

$$$$
c1bf1297-5cb6-4137-b3a7-8773c51040f3
     RDKit          3D

 16 17  0  0  0  0  0  0  0  0999 V2000
   -1.4511   23.5005    3.3465 C   0  0  0  0  0  0  0  0  0  0  0  0
   -2.7187   24.3202    3.3615 C   0  0  0  0  0  0  0  0  0  0  0  0
   -2.7669   25.4258    2.8133 O   0  0  0  0  0  0  0  0  0  0  0  0
   -3.6861   23.6730    4.0361 N   0  0  0  0  0  2  0  0  0  0  0  0
   -4.8770   24.3046    4.0774 C   0  0  0  0  0  0  0  0  0  0  0  0
   -6.0475   23.6386    3.6694 C   0  0  0  0  0  0  0  0  0  0  0  0
   -7.2829   24.3065    3.5310 C   0  0  0  0  0  0  0  0  0  0  0  0
   -7.3806   25.6736    3.7777 C   0  0  0  0  0  0  0  0  0  0  0  0
   -6.2333   26.3032    4.2168 C   0  0  0  0  0  0  0  0  0  0  0  0
   -5.0393   25.6347    4.4299 C   0  0  0  0  0  0  0  0  0  0  0  0
   -4.0809   26.6127    4.9784 C   0  0  0  0  0  0  0  0  0  0  0  0
   -3.0486   26.5026    5.5990 O   0  0  0  0  0  0  0  0  0  0  0  0
   -4.6052   27.9772    4.8461 N   0  0  0  0  0  4  0  0  0  0  0  0
   -4.4399   28.8067    6.0426 C   0  0  0  0  0  0  0  0  0  0  0  0
   -5.9812   27.7125    4.4643 C   0  0  0  0  0  0  0  0  0  0  0  0
   -6.7412   28.6506    4.3716 O   0  0  0  0  0  0  0  0  0  0  0  0
  1  2  1  0
  2  3  2  0
  2  4  1  0
  4  5  1  0
  5  6  2  0
  6  7  1  0
  7  8  2  0
  8  9  1  0
  9 10  2  0
 10 11  1  0
 11 12  2  0
 11 13  1  0
 13 14  1  0
 13 15  1  0
 15 16  2  0
 10  5  1  0
 15  9  1  0
M  CHG  2   4  -1  13   1
M  END
>  <Energy>  (724) 
-120.18363842655671

>  <Energy_Delta>  (724) 
3.5322501427245498

>  <std_smi>  (724) 
CC(=O)Nc1cccc2c1C(=O)N(C)C2=O

>  <enum_smi>  (724) 
CC(=O)[N-]c1cccc2c1C(=O)[NH+](C)C2=O

>  <enum_code>  (724) 
M

>  <parent_uuid>  (724) 
cf183151-a3f9-4e16-9f3b-758a388eb19e

>  <o3da_score>  (724) 
66.592193995528405

>  <o3da_score_rel>  (724) 
0.26511319986754095

>  <o3da_align>  (724) 
0.45242370413539901

>  <RMSD>  (724) 
6.1367664012623556e-05

>  <CONVERGED>  (724) 
0

>  <ENERGY>  (724) 
-120.18363842662708

$$$$
c1bf1297-5cb6-4137-b3a7-8773c51040f3
     RDKit          3D

 16 17  0  0  0  0  0  0  0  0999 V2000
   -7.6968   22.9730    2.3428 C   0  0  0  0  0  0  0  0  0  0  0  0
   -6.6744   23.9792    2.8131 C   0  0  0  0  0  0  0  0  0  0  0  0
   -6.5356   25.0617    2.2349 O   0  0  0  0  0  0  0  0  0  0  0  0
   -6.0181   23.5107    3.8899 N   0  0  0  0  0  2  0  0  0  0  0  0
   -5.0517   24.3201    4.3693 C   0  0  0  0  0  0  0  0  0  0  0  0
   -3.7456   23.8312    4.5568 C   0  0  0  0  0  0  0  0  0  0  0  0
   -2.6668   24.6780    4.8894 C   0  0  0  0  0  0  0  0  0  0  0  0
   -2.8590   26.0506    5.0246 C   0  0  0  0  0  0  0  0  0  0  0  0
   -4.1532   26.5080    4.8783 C   0  0  0  0  0  0  0  0  0  0  0  0
   -5.2272   25.6694    4.6306 C   0  0  0  0  0  0  0  0  0  0  0  0
   -6.4438   26.5035    4.6298 C   0  0  0  0  0  0  0  0  0  0  0  0
   -7.6196   26.2538    4.7653 O   0  0  0  0  0  0  0  0  0  0  0  0
   -6.0915   27.9280    4.6030 N   0  0  0  0  0  4  0  0  0  0  0  0
   -6.8594   28.7581    5.5348 C   0  0  0  0  0  0  0  0  0  0  0  0
   -4.6638   27.8681    4.8630 C   0  0  0  0  0  0  0  0  0  0  0  0
   -4.0637   28.9094    5.0112 O   0  0  0  0  0  0  0  0  0  0  0  0
  1  2  1  0
  2  3  2  0
  2  4  1  0
  4  5  1  0
  5  6  2  0
  6  7  1  0
  7  8  2  0
  8  9  1  0
  9 10  2  0
 10 11  1  0
 11 12  2  0
 11 13  1  0
 13 14  1  0
 13 15  1  0
 15 16  2  0
 10  5  1  0
 15  9  1  0
M  CHG  2   4  -1  13   1
M  END
>  <Energy>  (725) 
-120.1836384264731

>  <Energy_Delta>  (725) 
3.5322501428081665

>  <std_smi>  (725) 
CC(=O)Nc1cccc2c1C(=O)N(C)C2=O

>  <enum_smi>  (725) 
CC(=O)[N-]c1cccc2c1C(=O)[NH+](C)C2=O

>  <enum_code>  (725) 
M

>  <parent_uuid>  (725) 
cf183151-a3f9-4e16-9f3b-758a388eb19e

>  <o3da_score>  (725) 
71.756881647462592

>  <o3da_score_rel>  (725) 
0.28567457181772166

>  <o3da_align>  (725) 
0.31016842003678952

>  <RMSD>  (725) 
7.9469601246473433e-05

>  <CONVERGED>  (725) 
0

>  <ENERGY>  (725) 
-120.18363842661404

$$$$
7ba4e580-758d-4383-aacb-c79fe939f1f6
     RDKit          3D

 16 17  0  0  0  0  0  0  0  0999 V2000
   -7.6691   22.5791    2.5872 C   0  0  0  0  0  0  0  0  0  0  0  0
   -6.6476   23.6780    2.7707 C   0  0  0  0  0  0  0  0  0  0  0  0
   -6.6464   24.6507    2.0146 O   0  0  0  0  0  0  0  0  0  0  0  0
   -5.8373   23.3679    3.7901 N   0  0  0  0  0  2  0  0  0  0  0  0
   -4.9284   24.2722    4.2196 C   0  0  0  0  0  0  0  0  0  0  0  0
   -5.1834   25.6603    4.3209 C   0  0  0  0  0  0  0  0  0  0  0  0
   -4.2322   26.5842    4.8017 C   0  0  0  0  0  0  0  0  0  0  0  0
   -2.9796   26.1521    5.2177 C   0  0  0  0  0  0  0  0  0  0  0  0
   -2.7331   24.7951    5.1377 C   0  0  0  0  0  0  0  0  0  0  0  0
   -3.6657   23.8733    4.6658 C   0  0  0  0  0  0  0  0  0  0  0  0
   -3.0135   22.5410    4.7607 C   0  0  0  0  0  0  0  0  0  0  0  0
   -3.4740   21.4460    4.4883 O   0  0  0  0  0  0  0  0  0  0  0  0
   -1.7474   22.7634    5.2503 N   0  0  0  0  0  0  0  0  0  0  0  0
   -0.8088   21.7025    5.5024 C   0  0  0  0  0  0  0  0  0  0  0  0
   -1.5194   24.0790    5.5150 C   0  0  0  0  0  0  0  0  0  0  0  0
   -0.5241   24.6043    5.9832 O   0  0  0  0  0  0  0  0  0  0  0  0
  1  2  1  0
  2  3  2  0
  2  4  1  0
  4  5  1  0
  5  6  2  0
  6  7  1  0
  7  8  2  0
  8  9  1  0
  9 10  2  0
 10 11  1  0
 11 12  2  0
 11 13  1  0
 13 14  1  0
 13 15  1  0
 15 16  2  0
 10  5  1  0
 15  9  1  0
M  CHG  1   4  -1
M  END
>  <Energy>  (726) 
31.450587188845951

>  <Energy_Delta>  (726) 
0

>  <std_smi>  (726) 
CC(=O)Nc1cccc2c1C(=O)N(C)C2=O

>  <enum_smi>  (726) 
CC(=O)[N-]c1cccc2c1C(=O)N(C)C2=O

>  <enum_code>  (726) 
M

>  <parent_uuid>  (726) 
cf183151-a3f9-4e16-9f3b-758a388eb19e

>  <o3da_score>  (726) 
75.662869634683375

>  <o3da_score_rel>  (726) 
0.30122487751880445

>  <o3da_align>  (726) 
0.23967506262500393

>  <RMSD>  (726) 
7.0591228003299918e-05

>  <CONVERGED>  (726) 
0

>  <ENERGY>  (726) 
31.450587188328029

$$$$
7ba4e580-758d-4383-aacb-c79fe939f1f6
     RDKit          3D

 16 17  0  0  0  0  0  0  0  0999 V2000
   -7.7387   22.5546    2.7470 C   0  0  0  0  0  0  0  0  0  0  0  0
   -7.0256   23.5456    3.6382 C   0  0  0  0  0  0  0  0  0  0  0  0
   -7.6746   24.2906    4.3743 O   0  0  0  0  0  0  0  0  0  0  0  0
   -5.7026   23.4150    3.4812 N   0  0  0  0  0  2  0  0  0  0  0  0
   -4.8689   24.2930    4.0831 C   0  0  0  0  0  0  0  0  0  0  0  0
   -5.1235   25.6813    4.1833 C   0  0  0  0  0  0  0  0  0  0  0  0
   -4.2259   26.5864    4.7872 C   0  0  0  0  0  0  0  0  0  0  0  0
   -3.0192   26.1383    5.3085 C   0  0  0  0  0  0  0  0  0  0  0  0
   -2.7586   24.7863    5.1961 C   0  0  0  0  0  0  0  0  0  0  0  0
   -3.6371   23.8833    4.6004 C   0  0  0  0  0  0  0  0  0  0  0  0
   -2.9749   22.5546    4.6722 C   0  0  0  0  0  0  0  0  0  0  0  0
   -3.3668   21.4835    4.2425 O   0  0  0  0  0  0  0  0  0  0  0  0
   -1.7778   22.7528    5.3200 N   0  0  0  0  0  0  0  0  0  0  0  0
   -0.8355   21.6932    5.5639 C   0  0  0  0  0  0  0  0  0  0  0  0
   -1.5752   24.0595    5.6432 C   0  0  0  0  0  0  0  0  0  0  0  0
   -0.6127   24.5734    6.1866 O   0  0  0  0  0  0  0  0  0  0  0  0
  1  2  1  0
  2  3  2  0
  2  4  1  0
  4  5  1  0
  5  6  2  0
  6  7  1  0
  7  8  2  0
  8  9  1  0
  9 10  2  0
 10 11  1  0
 11 12  2  0
 11 13  1  0
 13 14  1  0
 13 15  1  0
 15 16  2  0
 10  5  1  0
 15  9  1  0
M  CHG  1   4  -1
M  END
>  <Energy>  (727) 
31.450587193000807

>  <Energy_Delta>  (727) 
4.1548560147930402e-09

>  <std_smi>  (727) 
CC(=O)Nc1cccc2c1C(=O)N(C)C2=O

>  <enum_smi>  (727) 
CC(=O)[N-]c1cccc2c1C(=O)N(C)C2=O

>  <enum_code>  (727) 
M

>  <parent_uuid>  (727) 
cf183151-a3f9-4e16-9f3b-758a388eb19e

>  <o3da_score>  (727) 
74.400883762611357

>  <o3da_score_rel>  (727) 
0.29620072840073952

>  <o3da_align>  (727) 
0.30029376137069741

>  <RMSD>  (727) 
6.2729917217052786e-05

>  <CONVERGED>  (727) 
0

>  <ENERGY>  (727) 
31.450587188474262

$$$$
7ba4e580-758d-4383-aacb-c79fe939f1f6
     RDKit          3D

 16 17  0  0  0  0  0  0  0  0999 V2000
   -5.7222   29.7075    4.8230 C   0  0  0  0  0  0  0  0  0  0  0  0
   -5.9896   28.2233    4.8975 C   0  0  0  0  0  0  0  0  0  0  0  0
   -6.2512   27.6872    5.9760 O   0  0  0  0  0  0  0  0  0  0  0  0
   -5.9256   27.6839    3.6706 N   0  0  0  0  0  2  0  0  0  0  0  0
   -5.8372   26.3367    3.6448 C   0  0  0  0  0  0  0  0  0  0  0  0
   -6.8847   25.5840    3.0734 C   0  0  0  0  0  0  0  0  0  0  0  0
   -6.8751   24.1750    3.0418 C   0  0  0  0  0  0  0  0  0  0  0  0
   -5.8063   23.4660    3.5802 C   0  0  0  0  0  0  0  0  0  0  0  0
   -4.7716   24.2076    4.1202 C   0  0  0  0  0  0  0  0  0  0  0  0
   -4.7603   25.5985    4.1423 C   0  0  0  0  0  0  0  0  0  0  0  0
   -3.4555   25.9950    4.7300 C   0  0  0  0  0  0  0  0  0  0  0  0
   -2.9560   27.1056    4.7899 O   0  0  0  0  0  0  0  0  0  0  0  0
   -2.8388   24.8284    5.1188 N   0  0  0  0  0  0  0  0  0  0  0  0
   -1.5178   24.7913    5.6862 C   0  0  0  0  0  0  0  0  0  0  0  0
   -3.5366   23.7256    4.7291 C   0  0  0  0  0  0  0  0  0  0  0  0
   -3.2224   22.5507    4.8164 O   0  0  0  0  0  0  0  0  0  0  0  0
  1  2  1  0
  2  3  2  0
  2  4  1  0
  4  5  1  0
  5  6  2  0
  6  7  1  0
  7  8  2  0
  8  9  1  0
  9 10  2  0
 10 11  1  0
 11 12  2  0
 11 13  1  0
 13 14  1  0
 13 15  1  0
 15 16  2  0
 10  5  1  0
 15  9  1  0
M  CHG  1   4  -1
M  END
>  <Energy>  (728) 
31.787935035511278

>  <Energy_Delta>  (728) 
0.33734784666532747

>  <std_smi>  (728) 
CC(=O)Nc1cccc2c1C(=O)N(C)C2=O

>  <enum_smi>  (728) 
CC(=O)[N-]c1cccc2c1C(=O)N(C)C2=O

>  <enum_code>  (728) 
M

>  <parent_uuid>  (728) 
cf183151-a3f9-4e16-9f3b-758a388eb19e

>  <o3da_score>  (728) 
69.118223362519942

>  <o3da_score_rel>  (728) 
0.27516968979919082

>  <o3da_align>  (728) 
0.35000932955518665

>  <RMSD>  (728) 
5.6449343437272817e-05

>  <CONVERGED>  (728) 
0

>  <ENERGY>  (728) 
31.787935032439076

$$$$
7ba4e580-758d-4383-aacb-c79fe939f1f6
     RDKit          3D

 16 17  0  0  0  0  0  0  0  0999 V2000
   -2.0930   30.3854    4.1840 C   0  0  0  0  0  0  0  0  0  0  0  0
   -3.0049   29.2505    3.7836 C   0  0  0  0  0  0  0  0  0  0  0  0
   -2.8461   28.6687    2.7088 O   0  0  0  0  0  0  0  0  0  0  0  0
   -3.9411   29.0605    4.7257 N   0  0  0  0  0  2  0  0  0  0  0  0
   -4.6113   27.8917    4.6350 C   0  0  0  0  0  0  0  0  0  0  0  0
   -5.9961   27.9058    4.3657 C   0  0  0  0  0  0  0  0  0  0  0  0
   -6.7523   26.7248    4.2245 C   0  0  0  0  0  0  0  0  0  0  0  0
   -6.1449   25.4802    4.3543 C   0  0  0  0  0  0  0  0  0  0  0  0
   -4.7918   25.4706    4.6393 C   0  0  0  0  0  0  0  0  0  0  0  0
   -4.0373   26.6284    4.7983 C   0  0  0  0  0  0  0  0  0  0  0  0
   -2.6682   26.1860    5.1657 C   0  0  0  0  0  0  0  0  0  0  0  0
   -1.7305   26.8619    5.5537 O   0  0  0  0  0  0  0  0  0  0  0  0
   -2.6739   24.8126    5.0864 N   0  0  0  0  0  0  0  0  0  0  0  0
   -1.5350   24.0030    5.4267 C   0  0  0  0  0  0  0  0  0  0  0  0
   -3.9192   24.3189    4.8409 C   0  0  0  0  0  0  0  0  0  0  0  0
   -4.2913   23.1580    4.8172 O   0  0  0  0  0  0  0  0  0  0  0  0
  1  2  1  0
  2  3  2  0
  2  4  1  0
  4  5  1  0
  5  6  2  0
  6  7  1  0
  7  8  2  0
  8  9  1  0
  9 10  2  0
 10 11  1  0
 11 12  2  0
 11 13  1  0
 13 14  1  0
 13 15  1  0
 15 16  2  0
 10  5  1  0
 15  9  1  0
M  CHG  1   4  -1
M  END
>  <Energy>  (729) 
31.787935040150906

>  <Energy_Delta>  (729) 
0.33734785130495482

>  <std_smi>  (729) 
CC(=O)Nc1cccc2c1C(=O)N(C)C2=O

>  <enum_smi>  (729) 
CC(=O)[N-]c1cccc2c1C(=O)N(C)C2=O

>  <enum_code>  (729) 
M

>  <parent_uuid>  (729) 
cf183151-a3f9-4e16-9f3b-758a388eb19e

>  <o3da_score>  (729) 
76.025413275063656

>  <o3da_score_rel>  (729) 
0.30266821642725517

>  <o3da_align>  (729) 
0.41722676898694161

>  <RMSD>  (729) 
6.9678620047610972e-05

>  <CONVERGED>  (729) 
0

>  <ENERGY>  (729) 
31.787935033311918

$$$$
6620cc01-fc2b-4cc4-81f0-045e40704b17
     RDKit          3D

 16 17  0  0  0  0  0  0  0  0999 V2000
   -3.6698   28.3280    7.0260 C   0  0  0  0  0  0  0  0  0  0  0  0
   -3.2598   28.0708    5.5711 C   0  0  0  0  0  0  0  0  0  0  0  0
   -3.7056   29.1991    4.7430 N   0  0  0  0  0  0  0  0  0  0  0  0
   -2.8725   29.4935    3.6610 C   0  0  0  0  0  0  0  0  0  0  0  0
   -2.5951   28.6081    2.6176 C   0  0  0  0  0  0  0  0  0  0  0  0
   -1.7796   28.9102    1.5743 N   0  0  0  0  0  0  0  0  0  0  0  0
   -1.2619   30.1549    1.5999 C   0  0  0  0  0  0  0  0  0  0  0  0
   -1.5428   31.0473    2.6188 C   0  0  0  0  0  0  0  0  0  0  0  0
   -2.3474   30.7362    3.6632 N   0  0  0  0  0  0  0  0  0  0  0  0
   -3.8720   26.7625    5.0967 C   0  0  0  0  0  0  0  0  0  0  0  0
   -5.2263   26.6743    4.7306 C   0  0  0  0  0  0  0  0  0  0  0  0
   -5.7763   25.4622    4.3086 C   0  0  0  0  0  0  0  0  0  0  0  0
   -4.9818   24.3184    4.2523 C   0  0  0  0  0  0  0  0  0  0  0  0
   -3.6403   24.3920    4.6192 C   0  0  0  0  0  0  0  0  0  0  0  0
   -2.6589   22.9798    4.5549 Cl  0  0  0  0  0  0  0  0  0  0  0  0
   -3.0843   25.6008    5.0405 C   0  0  0  0  0  0  0  0  0  0  0  0
  1  2  1  0
  2  3  1  0
  3  4  1  0
  4  5  2  0
  5  6  1  0
  6  7  2  0
  7  8  1  0
  8  9  2  0
  2 10  1  0
 10 11  2  0
 11 12  1  0
 12 13  2  0
 13 14  1  0
 14 15  1  0
 14 16  2  0
  9  4  1  0
 16 10  1  0
M  END
>  <Energy>  (730) 
47.763252317732814

>  <Energy_Delta>  (730) 
0

>  <std_smi>  (730) 
CC(Nc1cnccn1)c1cccc(Cl)c1

>  <enum_smi>  (730) 
CC(Nc1cnccn1)c1cccc(Cl)c1

>  <enum_code>  (730) 
B

>  <o3da_score>  (730) 
82.248174632315838

>  <o3da_score_rel>  (730) 
0.32744193353205553

>  <o3da_align>  (730) 
0.41759566970826389

>  <RMSD>  (730) 
6.6568755790917945e-05

>  <CONVERGED>  (730) 
0

>  <ENERGY>  (730) 
47.763252306181229

$$$$
6620cc01-fc2b-4cc4-81f0-045e40704b17
     RDKit          3D

 16 17  0  0  0  0  0  0  0  0999 V2000
   -4.2091   30.2801    5.2387 C   0  0  0  0  0  0  0  0  0  0  0  0
   -3.6723   28.9370    4.7318 C   0  0  0  0  0  0  0  0  0  0  0  0
   -4.6512   27.8973    5.0521 N   0  0  0  0  0  0  0  0  0  0  0  0
   -4.2609   26.5738    4.8767 C   0  0  0  0  0  0  0  0  0  0  0  0
   -3.0980   26.0193    5.4154 C   0  0  0  0  0  0  0  0  0  0  0  0
   -2.7261   24.7256    5.2379 N   0  0  0  0  0  0  0  0  0  0  0  0
   -3.5854   23.9869    4.5066 C   0  0  0  0  0  0  0  0  0  0  0  0
   -4.7528   24.5160    3.9859 C   0  0  0  0  0  0  0  0  0  0  0  0
   -5.1131   25.8091    4.1641 N   0  0  0  0  0  0  0  0  0  0  0  0
   -3.3736   28.9811    3.2406 C   0  0  0  0  0  0  0  0  0  0  0  0
   -2.0854   28.6625    2.7772 C   0  0  0  0  0  0  0  0  0  0  0  0
   -1.7890   28.6844    1.4122 C   0  0  0  0  0  0  0  0  0  0  0  0
   -2.7766   29.0220    0.4889 C   0  0  0  0  0  0  0  0  0  0  0  0
   -4.0585   29.3328    0.9345 C   0  0  0  0  0  0  0  0  0  0  0  0
   -5.2810   29.7454   -0.2046 Cl  0  0  0  0  0  0  0  0  0  0  0  0
   -4.3609   29.3131    2.2967 C   0  0  0  0  0  0  0  0  0  0  0  0
  1  2  1  0
  2  3  1  0
  3  4  1  0
  4  5  2  0
  5  6  1  0
  6  7  2  0
  7  8  1  0
  8  9  2  0
  2 10  1  0
 10 11  2  0
 11 12  1  0
 12 13  2  0
 13 14  1  0
 14 15  1  0
 14 16  2  0
  9  4  1  0
 16 10  1  0
M  END
>  <Energy>  (731) 
48.258127503179743

>  <Energy_Delta>  (731) 
0.49487518544692932

>  <std_smi>  (731) 
CC(Nc1cnccn1)c1cccc(Cl)c1

>  <enum_smi>  (731) 
CC(Nc1cnccn1)c1cccc(Cl)c1

>  <enum_code>  (731) 
B

>  <o3da_score>  (731) 
82.398958109900335

>  <o3da_score_rel>  (731) 
0.32804222446453729

>  <o3da_align>  (731) 
0.30735803768629116

>  <RMSD>  (731) 
5.91278076171875e-05

>  <CONVERGED>  (731) 
0

>  <ENERGY>  (731) 
48.258127481717466

$$$$
6620cc01-fc2b-4cc4-81f0-045e40704b17
     RDKit          3D

 16 17  0  0  0  0  0  0  0  0999 V2000
   -4.4796   28.4954    6.8306 C   0  0  0  0  0  0  0  0  0  0  0  0
   -4.4303   28.1134    5.3470 C   0  0  0  0  0  0  0  0  0  0  0  0
   -3.4162   28.9415    4.6914 N   0  0  0  0  0  0  0  0  0  0  0  0
   -3.4286   28.9701    3.2996 C   0  0  0  0  0  0  0  0  0  0  0  0
   -4.5495   29.2969    2.5334 C   0  0  0  0  0  0  0  0  0  0  0  0
   -4.5545   29.3208    1.1762 N   0  0  0  0  0  0  0  0  0  0  0  0
   -3.3715   29.0210    0.6021 C   0  0  0  0  0  0  0  0  0  0  0  0
   -2.2465   28.7189    1.3484 C   0  0  0  0  0  0  0  0  0  0  0  0
   -2.2515   28.6935    2.7024 N   0  0  0  0  0  0  0  0  0  0  0  0
   -4.1392   26.6327    5.1505 C   0  0  0  0  0  0  0  0  0  0  0  0
   -3.0255   26.0083    5.7388 C   0  0  0  0  0  0  0  0  0  0  0  0
   -2.7720   24.6503    5.5297 C   0  0  0  0  0  0  0  0  0  0  0  0
   -3.6237   23.8967    4.7244 C   0  0  0  0  0  0  0  0  0  0  0  0
   -4.7240   24.5056    4.1275 C   0  0  0  0  0  0  0  0  0  0  0  0
   -5.7735   23.5789    3.1265 Cl  0  0  0  0  0  0  0  0  0  0  0  0
   -4.9836   25.8611    4.3336 C   0  0  0  0  0  0  0  0  0  0  0  0
  1  2  1  0
  2  3  1  0
  3  4  1  0
  4  5  2  0
  5  6  1  0
  6  7  2  0
  7  8  1  0
  8  9  2  0
  2 10  1  0
 10 11  2  0
 11 12  1  0
 12 13  2  0
 13 14  1  0
 14 15  1  0
 14 16  2  0
  9  4  1  0
 16 10  1  0
M  END
>  <Energy>  (732) 
48.310098733676014

>  <Energy_Delta>  (732) 
0.54684641594320027

>  <std_smi>  (732) 
CC(Nc1cnccn1)c1cccc(Cl)c1

>  <enum_smi>  (732) 
CC(Nc1cnccn1)c1cccc(Cl)c1

>  <enum_code>  (732) 
B

>  <o3da_score>  (732) 
75.755355899981026

>  <o3da_score_rel>  (732) 
0.30159307877882757

>  <o3da_align>  (732) 
0.43496303897408667

>  <RMSD>  (732) 
8.2420444153011719e-05

>  <CONVERGED>  (732) 
0

>  <ENERGY>  (732) 
48.31009871321789

$$$$
6620cc01-fc2b-4cc4-81f0-045e40704b17
     RDKit          3D

 16 17  0  0  0  0  0  0  0  0999 V2000
   -5.9476   28.3231    5.6080 C   0  0  0  0  0  0  0  0  0  0  0  0
   -4.5122   28.1118    5.1135 C   0  0  0  0  0  0  0  0  0  0  0  0
   -4.3187   28.9139    3.9040 N   0  0  0  0  0  0  0  0  0  0  0  0
   -3.0076   29.1038    3.4761 C   0  0  0  0  0  0  0  0  0  0  0  0
   -1.9884   29.6176    4.2807 C   0  0  0  0  0  0  0  0  0  0  0  0
   -0.7115   29.7981    3.8568 N   0  0  0  0  0  0  0  0  0  0  0  0
   -0.4907   29.4599    2.5701 C   0  0  0  0  0  0  0  0  0  0  0  0
   -1.4960   28.9724    1.7541 C   0  0  0  0  0  0  0  0  0  0  0  0
   -2.7666   28.7918    2.1865 N   0  0  0  0  0  0  0  0  0  0  0  0
   -4.2118   26.6433    4.8508 C   0  0  0  0  0  0  0  0  0  0  0  0
   -5.0203   25.8563    4.0122 C   0  0  0  0  0  0  0  0  0  0  0  0
   -4.7134   24.5140    3.7749 C   0  0  0  0  0  0  0  0  0  0  0  0
   -3.5905   23.9391    4.3667 C   0  0  0  0  0  0  0  0  0  0  0  0
   -2.7758   24.7105    5.1908 C   0  0  0  0  0  0  0  0  0  0  0  0
   -1.3842   24.0050    5.9172 Cl  0  0  0  0  0  0  0  0  0  0  0  0
   -3.0777   26.0512    5.4330 C   0  0  0  0  0  0  0  0  0  0  0  0
  1  2  1  0
  2  3  1  0
  3  4  1  0
  4  5  2  0
  5  6  1  0
  6  7  2  0
  7  8  1  0
  8  9  2  0
  2 10  1  0
 10 11  2  0
 11 12  1  0
 12 13  2  0
 13 14  1  0
 14 15  1  0
 14 16  2  0
  9  4  1  0
 16 10  1  0
M  END
>  <Energy>  (733) 
48.310098768798625

>  <Energy_Delta>  (733) 
0.54684645106581087

>  <std_smi>  (733) 
CC(Nc1cnccn1)c1cccc(Cl)c1

>  <enum_smi>  (733) 
CC(Nc1cnccn1)c1cccc(Cl)c1

>  <enum_code>  (733) 
B

>  <o3da_score>  (733) 
78.614193870400868

>  <o3da_score_rel>  (733) 
0.312974528116444

>  <o3da_align>  (733) 
0.5627778304878891

>  <RMSD>  (733) 
9.2425876643069765e-05

>  <CONVERGED>  (733) 
0

>  <ENERGY>  (733) 
48.310098712923988

$$$$
6620cc01-fc2b-4cc4-81f0-045e40704b17
     RDKit          3D

 16 17  0  0  0  0  0  0  0  0999 V2000
   -5.5572   28.5653    4.9779 C   0  0  0  0  0  0  0  0  0  0  0  0
   -4.1389   28.0548    4.6949 C   0  0  0  0  0  0  0  0  0  0  0  0
   -3.6787   28.4553    3.3654 N   0  0  0  0  0  0  0  0  0  0  0  0
   -3.4615   29.8108    3.1504 C   0  0  0  0  0  0  0  0  0  0  0  0
   -2.6202   30.6011    3.9362 C   0  0  0  0  0  0  0  0  0  0  0  0
   -2.4153   31.9260    3.7231 N   0  0  0  0  0  0  0  0  0  0  0  0
   -3.0741   32.4368    2.6628 C   0  0  0  0  0  0  0  0  0  0  0  0
   -3.8963   31.6619    1.8645 C   0  0  0  0  0  0  0  0  0  0  0  0
   -4.1052   30.3430    2.0919 N   0  0  0  0  0  0  0  0  0  0  0  0
   -4.0446   26.5374    4.7806 C   0  0  0  0  0  0  0  0  0  0  0  0
   -2.9966   25.9455    5.5075 C   0  0  0  0  0  0  0  0  0  0  0  0
   -2.8768   24.5560    5.5931 C   0  0  0  0  0  0  0  0  0  0  0  0
   -3.7980   23.7354    4.9455 C   0  0  0  0  0  0  0  0  0  0  0  0
   -4.8313   24.3083    4.2091 C   0  0  0  0  0  0  0  0  0  0  0  0
   -5.9642   23.2967    3.3990 Cl  0  0  0  0  0  0  0  0  0  0  0  0
   -4.9564   25.6957    4.1201 C   0  0  0  0  0  0  0  0  0  0  0  0
  1  2  1  0
  2  3  1  0
  3  4  1  0
  4  5  2  0
  5  6  1  0
  6  7  2  0
  7  8  1  0
  8  9  2  0
  2 10  1  0
 10 11  2  0
 11 12  1  0
 12 13  2  0
 13 14  1  0
 14 15  1  0
 14 16  2  0
  9  4  1  0
 16 10  1  0
M  END
>  <Energy>  (734) 
48.538259981236337

>  <Energy_Delta>  (734) 
0.77500766350352279

>  <std_smi>  (734) 
CC(Nc1cnccn1)c1cccc(Cl)c1

>  <enum_smi>  (734) 
CC(Nc1cnccn1)c1cccc(Cl)c1

>  <enum_code>  (734) 
B

>  <o3da_score>  (734) 
70.419454611343212

>  <o3da_score_rel>  (734) 
0.28035008046429394

>  <o3da_align>  (734) 
0.40394327831449528

>  <RMSD>  (734) 
6.6577294297140731e-05

>  <CONVERGED>  (734) 
0

>  <ENERGY>  (734) 
48.53825997161772

$$$$
6620cc01-fc2b-4cc4-81f0-045e40704b17
     RDKit          3D

 16 17  0  0  0  0  0  0  0  0999 V2000
   -2.7426   29.4825    6.0843 C   0  0  0  0  0  0  0  0  0  0  0  0
   -3.4812   28.9773    4.8388 C   0  0  0  0  0  0  0  0  0  0  0  0
   -2.7548   29.3065    3.6125 N   0  0  0  0  0  0  0  0  0  0  0  0
   -2.6611   30.6503    3.2714 C   0  0  0  0  0  0  0  0  0  0  0  0
   -3.7616   31.4972    3.1249 C   0  0  0  0  0  0  0  0  0  0  0  0
   -3.6631   32.8103    2.7950 N   0  0  0  0  0  0  0  0  0  0  0  0
   -2.4043   33.2488    2.5894 C   0  0  0  0  0  0  0  0  0  0  0  0
   -1.3060   32.4168    2.7129 C   0  0  0  0  0  0  0  0  0  0  0  0
   -1.4124   31.1104    3.0548 N   0  0  0  0  0  0  0  0  0  0  0  0
   -3.6890   27.4690    4.8639 C   0  0  0  0  0  0  0  0  0  0  0  0
   -4.9539   26.9358    4.5595 C   0  0  0  0  0  0  0  0  0  0  0  0
   -5.1712   25.5556    4.5618 C   0  0  0  0  0  0  0  0  0  0  0  0
   -4.1248   24.6853    4.8597 C   0  0  0  0  0  0  0  0  0  0  0  0
   -2.8633   25.1991    5.1474 C   0  0  0  0  0  0  0  0  0  0  0  0
   -1.5661   24.1256    5.5049 Cl  0  0  0  0  0  0  0  0  0  0  0  0
   -2.6400   26.5770    5.1469 C   0  0  0  0  0  0  0  0  0  0  0  0
  1  2  1  0
  2  3  1  0
  3  4  1  0
  4  5  2  0
  5  6  1  0
  6  7  2  0
  7  8  1  0
  8  9  2  0
  2 10  1  0
 10 11  2  0
 11 12  1  0
 12 13  2  0
 13 14  1  0
 14 15  1  0
 14 16  2  0
  9  4  1  0
 16 10  1  0
M  END
>  <Energy>  (735) 
48.538260015632638

>  <Energy_Delta>  (735) 
0.77500769789982371

>  <std_smi>  (735) 
CC(Nc1cnccn1)c1cccc(Cl)c1

>  <enum_smi>  (735) 
CC(Nc1cnccn1)c1cccc(Cl)c1

>  <enum_code>  (735) 
B

>  <o3da_score>  (735) 
69.242278209911404

>  <o3da_score_rel>  (735) 
0.27566357017131426

>  <o3da_align>  (735) 
0.51610848865537107

>  <RMSD>  (735) 
5.8375074080190417e-05

>  <CONVERGED>  (735) 
0

>  <ENERGY>  (735) 
48.538259971439068

$$$$
6620cc01-fc2b-4cc4-81f0-045e40704b17
     RDKit          3D

 16 17  0  0  0  0  0  0  0  0999 V2000
   -1.2152   29.4699    4.9118 C   0  0  0  0  0  0  0  0  0  0  0  0
   -2.4860   29.5083    4.0541 C   0  0  0  0  0  0  0  0  0  0  0  0
   -2.6711   30.8158    3.4252 N   0  0  0  0  0  0  0  0  0  0  0  0
   -1.7434   31.1972    2.4640 C   0  0  0  0  0  0  0  0  0  0  0  0
   -1.4304   30.4366    1.3356 C   0  0  0  0  0  0  0  0  0  0  0  0
   -0.5196   30.8135    0.4021 N   0  0  0  0  0  0  0  0  0  0  0  0
    0.0594   32.0104    0.6276 C   0  0  0  0  0  0  0  0  0  0  0  0
   -0.2544   32.7832    1.7313 C   0  0  0  0  0  0  0  0  0  0  0  0
   -1.1550   32.3938    2.6653 N   0  0  0  0  0  0  0  0  0  0  0  0
   -3.7407   29.2040    4.8618 C   0  0  0  0  0  0  0  0  0  0  0  0
   -3.9996   29.8136    6.1020 C   0  0  0  0  0  0  0  0  0  0  0  0
   -5.1682   29.5258    6.8124 C   0  0  0  0  0  0  0  0  0  0  0  0
   -6.1013   28.6321    6.2903 C   0  0  0  0  0  0  0  0  0  0  0  0
   -5.8653   28.0345    5.0554 C   0  0  0  0  0  0  0  0  0  0  0  0
   -7.0204   26.9380    4.4030 Cl  0  0  0  0  0  0  0  0  0  0  0  0
   -4.7001   28.3175    4.3416 C   0  0  0  0  0  0  0  0  0  0  0  0
  1  2  1  0
  2  3  1  0
  3  4  1  0
  4  5  2  0
  5  6  1  0
  6  7  2  0
  7  8  1  0
  8  9  2  0
  2 10  1  0
 10 11  2  0
 11 12  1  0
 12 13  2  0
 13 14  1  0
 14 15  1  0
 14 16  2  0
  9  4  1  0
 16 10  1  0
M  END
>  <Energy>  (736) 
48.54536722317129

>  <Energy_Delta>  (736) 
0.78211490543847617

>  <std_smi>  (736) 
CC(Nc1cnccn1)c1cccc(Cl)c1

>  <enum_smi>  (736) 
CC(Nc1cnccn1)c1cccc(Cl)c1

>  <enum_code>  (736) 
B

>  <o3da_score>  (736) 
78.612353748573696

>  <o3da_score_rel>  (736) 
0.31296720232408792

>  <o3da_align>  (736) 
0.42258176166058931

>  <RMSD>  (736) 
5.4826942976945646e-05

>  <CONVERGED>  (736) 
0

>  <ENERGY>  (736) 
48.545367220283339

$$$$
6620cc01-fc2b-4cc4-81f0-045e40704b17
     RDKit          3D

 16 17  0  0  0  0  0  0  0  0999 V2000
   -4.3112   30.5189    3.0806 C   0  0  0  0  0  0  0  0  0  0  0  0
   -3.1599   29.5630    3.4166 C   0  0  0  0  0  0  0  0  0  0  0  0
   -1.9117   30.2873    3.6550 N   0  0  0  0  0  0  0  0  0  0  0  0
   -1.3425   30.9485    2.5739 C   0  0  0  0  0  0  0  0  0  0  0  0
   -1.0286   30.3342    1.3599 C   0  0  0  0  0  0  0  0  0  0  0  0
   -0.4762   30.9873    0.3059 N   0  0  0  0  0  0  0  0  0  0  0  0
   -0.2211   32.2941    0.5207 C   0  0  0  0  0  0  0  0  0  0  0  0
   -0.5096   32.9117    1.7245 C   0  0  0  0  0  0  0  0  0  0  0  0
   -1.0732   32.2556    2.7671 N   0  0  0  0  0  0  0  0  0  0  0  0
   -3.4469   28.7205    4.6523 C   0  0  0  0  0  0  0  0  0  0  0  0
   -3.9467   29.2803    5.8411 C   0  0  0  0  0  0  0  0  0  0  0  0
   -4.1850   28.4833    6.9642 C   0  0  0  0  0  0  0  0  0  0  0  0
   -3.9182   27.1162    6.9203 C   0  0  0  0  0  0  0  0  0  0  0  0
   -3.4069   26.5522    5.7549 C   0  0  0  0  0  0  0  0  0  0  0  0
   -3.0668   24.8659    5.7007 Cl  0  0  0  0  0  0  0  0  0  0  0  0
   -3.1674   27.3428    4.6302 C   0  0  0  0  0  0  0  0  0  0  0  0
  1  2  1  0
  2  3  1  0
  3  4  1  0
  4  5  2  0
  5  6  1  0
  6  7  2  0
  7  8  1  0
  8  9  2  0
  2 10  1  0
 10 11  2  0
 11 12  1  0
 12 13  2  0
 13 14  1  0
 14 15  1  0
 14 16  2  0
  9  4  1  0
 16 10  1  0
M  END
>  <Energy>  (737) 
48.545367238498244

>  <Energy_Delta>  (737) 
0.7821149207654301

>  <std_smi>  (737) 
CC(Nc1cnccn1)c1cccc(Cl)c1

>  <enum_smi>  (737) 
CC(Nc1cnccn1)c1cccc(Cl)c1

>  <enum_code>  (737) 
B

>  <o3da_score>  (737) 
73.649928712076473

>  <o3da_score_rel>  (737) 
0.29321106723388624

>  <o3da_align>  (737) 
0.46012460267447491

>  <RMSD>  (737) 
6.3209257430288442e-05

>  <CONVERGED>  (737) 
0

>  <ENERGY>  (737) 
48.545367220374757

$$$$
6620cc01-fc2b-4cc4-81f0-045e40704b17
     RDKit          3D

 16 17  0  0  0  0  0  0  0  0999 V2000
   -5.9546   28.9989    3.3369 C   0  0  0  0  0  0  0  0  0  0  0  0
   -4.5219   28.4588    3.3851 C   0  0  0  0  0  0  0  0  0  0  0  0
   -4.2657   27.8628    4.6998 N   0  0  0  0  0  0  0  0  0  0  0  0
   -4.1476   26.4730    4.7151 C   0  0  0  0  0  0  0  0  0  0  0  0
   -5.1385   25.5983    4.2651 C   0  0  0  0  0  0  0  0  0  0  0  0
   -5.0149   24.2465    4.2844 N   0  0  0  0  0  0  0  0  0  0  0  0
   -3.8547   23.7915    4.8002 C   0  0  0  0  0  0  0  0  0  0  0  0
   -2.8720   24.6459    5.2667 C   0  0  0  0  0  0  0  0  0  0  0  0
   -2.9991   25.9940    5.2336 N   0  0  0  0  0  0  0  0  0  0  0  0
   -3.5041   29.5641    3.1326 C   0  0  0  0  0  0  0  0  0  0  0  0
   -3.4607   30.7232    3.9274 C   0  0  0  0  0  0  0  0  0  0  0  0
   -2.5118   31.7200    3.6887 C   0  0  0  0  0  0  0  0  0  0  0  0
   -1.5878   31.5705    2.6561 C   0  0  0  0  0  0  0  0  0  0  0  0
   -1.6133   30.4217    1.8696 C   0  0  0  0  0  0  0  0  0  0  0  0
   -0.4682   30.2318    0.5989 Cl  0  0  0  0  0  0  0  0  0  0  0  0
   -2.5588   29.4220    2.1032 C   0  0  0  0  0  0  0  0  0  0  0  0
  1  2  1  0
  2  3  1  0
  3  4  1  0
  4  5  2  0
  5  6  1  0
  6  7  2  0
  7  8  1  0
  8  9  2  0
  2 10  1  0
 10 11  2  0
 11 12  1  0
 12 13  2  0
 13 14  1  0
 14 15  1  0
 14 16  2  0
  9  4  1  0
 16 10  1  0
M  END
>  <Energy>  (738) 
48.572181449773616

>  <Energy_Delta>  (738) 
0.8089291320408023

>  <std_smi>  (738) 
CC(Nc1cnccn1)c1cccc(Cl)c1

>  <enum_smi>  (738) 
CC(Nc1cnccn1)c1cccc(Cl)c1

>  <enum_code>  (738) 
B

>  <o3da_score>  (738) 
89.057537379696612

>  <o3da_score_rel>  (738) 
0.3545509960017223

>  <o3da_align>  (738) 
0.52792572831270168

>  <RMSD>  (738) 
5.7386118776948593e-05

>  <CONVERGED>  (738) 
0

>  <ENERGY>  (738) 
48.572181444941791

$$$$
6620cc01-fc2b-4cc4-81f0-045e40704b17
     RDKit          3D

 16 17  0  0  0  0  0  0  0  0999 V2000
   -4.3561   28.4881    6.5859 C   0  0  0  0  0  0  0  0  0  0  0  0
   -4.3795   28.1037    5.1032 C   0  0  0  0  0  0  0  0  0  0  0  0
   -3.3468   28.8554    4.3841 N   0  0  0  0  0  0  0  0  0  0  0  0
   -3.8160   29.8439    3.5193 C   0  0  0  0  0  0  0  0  0  0  0  0
   -4.6306   30.9071    3.9138 C   0  0  0  0  0  0  0  0  0  0  0  0
   -5.0817   31.8656    3.0647 N   0  0  0  0  0  0  0  0  0  0  0  0
   -4.6614   31.7357    1.7897 C   0  0  0  0  0  0  0  0  0  0  0  0
   -3.8395   30.6981    1.3884 C   0  0  0  0  0  0  0  0  0  0  0  0
   -3.4048   29.7384    2.2396 N   0  0  0  0  0  0  0  0  0  0  0  0
   -4.1337   26.6124    4.9115 C   0  0  0  0  0  0  0  0  0  0  0  0
   -5.0517   25.8395    4.1809 C   0  0  0  0  0  0  0  0  0  0  0  0
   -4.8388   24.4730    3.9835 C   0  0  0  0  0  0  0  0  0  0  0  0
   -3.7017   23.8603    4.5075 C   0  0  0  0  0  0  0  0  0  0  0  0
   -2.7781   24.6181    5.2226 C   0  0  0  0  0  0  0  0  0  0  0  0
   -1.3684   23.8654    5.8610 Cl  0  0  0  0  0  0  0  0  0  0  0  0
   -2.9848   25.9832    5.4229 C   0  0  0  0  0  0  0  0  0  0  0  0
  1  2  1  0
  2  3  1  0
  3  4  1  0
  4  5  2  0
  5  6  1  0
  6  7  2  0
  7  8  1  0
  8  9  2  0
  2 10  1  0
 10 11  2  0
 11 12  1  0
 12 13  2  0
 13 14  1  0
 14 15  1  0
 14 16  2  0
  9  4  1  0
 16 10  1  0
M  END
>  <Energy>  (739) 
48.635524423741451

>  <Energy_Delta>  (739) 
0.87227210600863714

>  <std_smi>  (739) 
CC(Nc1cnccn1)c1cccc(Cl)c1

>  <enum_smi>  (739) 
CC(Nc1cnccn1)c1cccc(Cl)c1

>  <enum_code>  (739) 
B

>  <o3da_score>  (739) 
63.202956384809092

>  <o3da_score_rel>  (739) 
0.25162015249701053

>  <o3da_align>  (739) 
0.39672069407501914

>  <RMSD>  (739) 
6.8614862265602212e-05

>  <CONVERGED>  (739) 
0

>  <ENERGY>  (739) 
48.635524420252196

$$$$
6620cc01-fc2b-4cc4-81f0-045e40704b17
     RDKit          3D

 16 17  0  0  0  0  0  0  0  0999 V2000
   -5.2177   28.6027    5.4237 C   0  0  0  0  0  0  0  0  0  0  0  0
   -3.9568   28.0947    4.7175 C   0  0  0  0  0  0  0  0  0  0  0  0
   -3.9499   28.5612    3.3279 N   0  0  0  0  0  0  0  0  0  0  0  0
   -3.0008   29.5379    3.0269 C   0  0  0  0  0  0  0  0  0  0  0  0
   -2.9136   30.7712    3.6757 C   0  0  0  0  0  0  0  0  0  0  0  0
   -1.9867   31.7164    3.3750 N   0  0  0  0  0  0  0  0  0  0  0  0
   -1.1513   31.3899    2.3677 C   0  0  0  0  0  0  0  0  0  0  0  0
   -1.2378   30.1795    1.7038 C   0  0  0  0  0  0  0  0  0  0  0  0
   -2.1573   29.2365    2.0192 N   0  0  0  0  0  0  0  0  0  0  0  0
   -3.8863   26.5729    4.7318 C   0  0  0  0  0  0  0  0  0  0  0  0
   -2.7471   25.9294    5.2437 C   0  0  0  0  0  0  0  0  0  0  0  0
   -2.6576   24.5353    5.2550 C   0  0  0  0  0  0  0  0  0  0  0  0
   -3.7023   23.7641    4.7484 C   0  0  0  0  0  0  0  0  0  0  0  0
   -4.8312   24.3903    4.2268 C   0  0  0  0  0  0  0  0  0  0  0  0
   -6.1174   23.4399    3.5912 Cl  0  0  0  0  0  0  0  0  0  0  0  0
   -4.9265   25.7822    4.2124 C   0  0  0  0  0  0  0  0  0  0  0  0
  1  2  1  0
  2  3  1  0
  3  4  1  0
  4  5  2  0
  5  6  1  0
  6  7  2  0
  7  8  1  0
  8  9  2  0
  2 10  1  0
 10 11  2  0
 11 12  1  0
 12 13  2  0
 13 14  1  0
 14 15  1  0
 14 16  2  0
  9  4  1  0
 16 10  1  0
M  END
>  <Energy>  (740) 
48.635524463094917

>  <Energy_Delta>  (740) 
0.8722721453621034

>  <std_smi>  (740) 
CC(Nc1cnccn1)c1cccc(Cl)c1

>  <enum_smi>  (740) 
CC(Nc1cnccn1)c1cccc(Cl)c1

>  <enum_code>  (740) 
B

>  <o3da_score>  (740) 
81.066108977666048

>  <o3da_score_rel>  (740) 
0.32273595841162672

>  <o3da_align>  (740) 
0.45579247382918925

>  <RMSD>  (740) 
6.3376304536511864e-05

>  <CONVERGED>  (740) 
0

>  <ENERGY>  (740) 
48.635524420736907

$$$$
6620cc01-fc2b-4cc4-81f0-045e40704b17
     RDKit          3D

 16 17  0  0  0  0  0  0  0  0999 V2000
   -3.0873   29.1565    3.5018 C   0  0  0  0  0  0  0  0  0  0  0  0
   -3.7264   28.9326    4.8782 C   0  0  0  0  0  0  0  0  0  0  0  0
   -4.7223   27.8619    4.8297 N   0  0  0  0  0  0  0  0  0  0  0  0
   -4.2488   26.5461    4.8010 C   0  0  0  0  0  0  0  0  0  0  0  0
   -5.1588   25.4862    4.7080 C   0  0  0  0  0  0  0  0  0  0  0  0
   -4.8061   24.1749    4.7013 N   0  0  0  0  0  0  0  0  0  0  0  0
   -3.4833   23.9470    4.8190 C   0  0  0  0  0  0  0  0  0  0  0  0
   -2.5686   24.9773    4.9350 C   0  0  0  0  0  0  0  0  0  0  0  0
   -2.9312   26.2828    4.9322 N   0  0  0  0  0  0  0  0  0  0  0  0
   -4.4336   30.1699    5.4236 C   0  0  0  0  0  0  0  0  0  0  0  0
   -4.4522   30.3833    6.8145 C   0  0  0  0  0  0  0  0  0  0  0  0
   -5.1043   31.4882    7.3666 C   0  0  0  0  0  0  0  0  0  0  0  0
   -5.7602   32.3946    6.5371 C   0  0  0  0  0  0  0  0  0  0  0  0
   -5.7664   32.1863    5.1605 C   0  0  0  0  0  0  0  0  0  0  0  0
   -6.5898   33.2967    4.1342 Cl  0  0  0  0  0  0  0  0  0  0  0  0
   -5.1157   31.0833    4.6029 C   0  0  0  0  0  0  0  0  0  0  0  0
  1  2  1  0
  2  3  1  0
  3  4  1  0
  4  5  2  0
  5  6  1  0
  6  7  2  0
  7  8  1  0
  8  9  2  0
  2 10  1  0
 10 11  2  0
 11 12  1  0
 12 13  2  0
 13 14  1  0
 14 15  1  0
 14 16  2  0
  9  4  1  0
 16 10  1  0
M  END
>  <Energy>  (741) 
48.943222785080948

>  <Energy_Delta>  (741) 
1.1799704673481344

>  <std_smi>  (741) 
CC(Nc1cnccn1)c1cccc(Cl)c1

>  <enum_smi>  (741) 
CC(Nc1cnccn1)c1cccc(Cl)c1

>  <enum_code>  (741) 
B

>  <o3da_score>  (741) 
70.917163049465756

>  <o3da_score_rel>  (741) 
0.28233153007144468

>  <o3da_align>  (741) 
0.27303932714243123

>  <RMSD>  (741) 
0.32338194865064057

>  <CONVERGED>  (741) 
0

>  <ENERGY>  (741) 
50.160085354897888

$$$$
6620cc01-fc2b-4cc4-81f0-045e40704b17
     RDKit          3D

 16 17  0  0  0  0  0  0  0  0999 V2000
   -4.9633   29.6724    5.3552 C   0  0  0  0  0  0  0  0  0  0  0  0
   -3.6774   28.9130    5.0043 C   0  0  0  0  0  0  0  0  0  0  0  0
   -3.1179   29.3922    3.7397 N   0  0  0  0  0  0  0  0  0  0  0  0
   -2.4313   30.6102    3.7609 C   0  0  0  0  0  0  0  0  0  0  0  0
   -1.9164   31.1344    2.5692 C   0  0  0  0  0  0  0  0  0  0  0  0
   -1.2113   32.2919    2.4856 N   0  0  0  0  0  0  0  0  0  0  0  0
   -1.0071   32.9131    3.6637 C   0  0  0  0  0  0  0  0  0  0  0  0
   -1.4865   32.4020    4.8556 C   0  0  0  0  0  0  0  0  0  0  0  0
   -2.1977   31.2510    4.9259 N   0  0  0  0  0  0  0  0  0  0  0  0
   -3.8682   27.4057    4.8558 C   0  0  0  0  0  0  0  0  0  0  0  0
   -5.0936   26.8096    4.5154 C   0  0  0  0  0  0  0  0  0  0  0  0
   -5.2012   25.4224    4.3743 C   0  0  0  0  0  0  0  0  0  0  0  0
   -4.0844   24.6099    4.5606 C   0  0  0  0  0  0  0  0  0  0  0  0
   -2.8599   25.1875    4.8822 C   0  0  0  0  0  0  0  0  0  0  0  0
   -1.4758   24.1888    5.1015 Cl  0  0  0  0  0  0  0  0  0  0  0  0
   -2.7473   26.5701    5.0255 C   0  0  0  0  0  0  0  0  0  0  0  0
  1  2  1  0
  2  3  1  0
  3  4  1  0
  4  5  2  0
  5  6  1  0
  6  7  2  0
  7  8  1  0
  8  9  2  0
  2 10  1  0
 10 11  2  0
 11 12  1  0
 12 13  2  0
 13 14  1  0
 14 15  1  0
 14 16  2  0
  9  4  1  0
 16 10  1  0
M  END
>  <Energy>  (742) 
48.974450454058122

>  <Energy_Delta>  (742) 
1.2111981363253079

>  <std_smi>  (742) 
CC(Nc1cnccn1)c1cccc(Cl)c1

>  <enum_smi>  (742) 
CC(Nc1cnccn1)c1cccc(Cl)c1

>  <enum_code>  (742) 
B

>  <o3da_score>  (742) 
75.825964742896105

>  <o3da_score_rel>  (742) 
0.30187418284164641

>  <o3da_align>  (742) 
0.56308558841130674

>  <RMSD>  (742) 
0.43713651864536163

>  <CONVERGED>  (742) 
0

>  <ENERGY>  (742) 
50.248059028619011

$$$$
6620cc01-fc2b-4cc4-81f0-045e40704b17
     RDKit          3D

 16 17  0  0  0  0  0  0  0  0999 V2000
   -1.8823   28.4469    5.3396 C   0  0  0  0  0  0  0  0  0  0  0  0
   -3.1184   28.8411    4.5212 C   0  0  0  0  0  0  0  0  0  0  0  0
   -2.8066   28.8788    3.0917 N   0  0  0  0  0  0  0  0  0  0  0  0
   -2.0987   29.9873    2.6169 C   0  0  0  0  0  0  0  0  0  0  0  0
   -1.7363   30.0494    1.2661 C   0  0  0  0  0  0  0  0  0  0  0  0
   -1.0750   31.0915    0.6997 N   0  0  0  0  0  0  0  0  0  0  0  0
   -0.8031   32.1093    1.5399 C   0  0  0  0  0  0  0  0  0  0  0  0
   -1.1716   32.0795    2.8721 C   0  0  0  0  0  0  0  0  0  0  0  0
   -1.8225   31.0297    3.4290 N   0  0  0  0  0  0  0  0  0  0  0  0
   -4.3010   27.8902    4.6868 C   0  0  0  0  0  0  0  0  0  0  0  0
   -4.1654   26.5427    5.0592 C   0  0  0  0  0  0  0  0  0  0  0  0
   -5.2866   25.7148    5.1752 C   0  0  0  0  0  0  0  0  0  0  0  0
   -6.5595   26.2170    4.9108 C   0  0  0  0  0  0  0  0  0  0  0  0
   -6.7078   27.5458    4.5250 C   0  0  0  0  0  0  0  0  0  0  0  0
   -8.2766   28.1665    4.1862 Cl  0  0  0  0  0  0  0  0  0  0  0  0
   -5.5933   28.3760    4.4091 C   0  0  0  0  0  0  0  0  0  0  0  0
  1  2  1  0
  2  3  1  0
  3  4  1  0
  4  5  2  0
  5  6  1  0
  6  7  2  0
  7  8  1  0
  8  9  2  0
  2 10  1  0
 10 11  2  0
 11 12  1  0
 12 13  2  0
 13 14  1  0
 14 15  1  0
 14 16  2  0
  9  4  1  0
 16 10  1  0
M  END
>  <Energy>  (743) 
48.974450460064276

>  <Energy_Delta>  (743) 
1.2111981423314617

>  <std_smi>  (743) 
CC(Nc1cnccn1)c1cccc(Cl)c1

>  <enum_smi>  (743) 
CC(Nc1cnccn1)c1cccc(Cl)c1

>  <enum_code>  (743) 
B

>  <o3da_score>  (743) 
71.460785843023871

>  <o3da_score_rel>  (743) 
0.28449577139875099

>  <o3da_align>  (743) 
0.49827711451032591

>  <RMSD>  (743) 
0.43713644204812746

>  <CONVERGED>  (743) 
0

>  <ENERGY>  (743) 
50.248059028409109

$$$$
6620cc01-fc2b-4cc4-81f0-045e40704b17
     RDKit          3D

 16 17  0  0  0  0  0  0  0  0999 V2000
   -5.8945   28.4384    5.1018 C   0  0  0  0  0  0  0  0  0  0  0  0
   -4.4425   28.1621    4.6886 C   0  0  0  0  0  0  0  0  0  0  0  0
   -4.2304   28.6847    3.3342 N   0  0  0  0  0  0  0  0  0  0  0  0
   -2.8931   28.9385    2.9757 C   0  0  0  0  0  0  0  0  0  0  0  0
   -2.6090   29.3939    1.6821 C   0  0  0  0  0  0  0  0  0  0  0  0
   -1.3600   29.6714    1.2278 N   0  0  0  0  0  0  0  0  0  0  0  0
   -0.3751   29.4525    2.1212 C   0  0  0  0  0  0  0  0  0  0  0  0
   -0.6319   28.9936    3.4002 C   0  0  0  0  0  0  0  0  0  0  0  0
   -1.8838   28.7372    3.8492 N   0  0  0  0  0  0  0  0  0  0  0  0
   -4.1725   26.6651    4.7399 C   0  0  0  0  0  0  0  0  0  0  0  0
   -3.3343   26.1364    5.7352 C   0  0  0  0  0  0  0  0  0  0  0  0
   -3.0861   24.7636    5.8057 C   0  0  0  0  0  0  0  0  0  0  0  0
   -3.6722   23.9003    4.8813 C   0  0  0  0  0  0  0  0  0  0  0  0
   -4.5015   24.4139    3.8870 C   0  0  0  0  0  0  0  0  0  0  0  0
   -5.2231   23.3488    2.7434 Cl  0  0  0  0  0  0  0  0  0  0  0  0
   -4.7535   25.7832    3.8124 C   0  0  0  0  0  0  0  0  0  0  0  0
  1  2  1  0
  2  3  1  0
  3  4  1  0
  4  5  2  0
  5  6  1  0
  6  7  2  0
  7  8  1  0
  8  9  2  0
  2 10  1  0
 10 11  2  0
 11 12  1  0
 12 13  2  0
 13 14  1  0
 14 15  1  0
 14 16  2  0
  9  4  1  0
 16 10  1  0
M  END
>  <Energy>  (744) 
50.129010495023621

>  <Energy_Delta>  (744) 
2.3657581772908074

>  <std_smi>  (744) 
CC(Nc1cnccn1)c1cccc(Cl)c1

>  <enum_smi>  (744) 
CC(Nc1cnccn1)c1cccc(Cl)c1

>  <enum_code>  (744) 
B

>  <o3da_score>  (744) 
76.613333910086183

>  <o3da_score_rel>  (744) 
0.30500881389772511

>  <o3da_align>  (744) 
0.40711710225369613

>  <RMSD>  (744) 
0.41222698157299353

>  <CONVERGED>  (744) 
0

>  <ENERGY>  (744) 
51.425997661546937

$$$$
6620cc01-fc2b-4cc4-81f0-045e40704b17
     RDKit          3D

 16 17  0  0  0  0  0  0  0  0999 V2000
   -2.4197   29.3172    5.2055 C   0  0  0  0  0  0  0  0  0  0  0  0
   -3.2864   29.2864    3.9424 C   0  0  0  0  0  0  0  0  0  0  0  0
   -2.4788   28.9604    2.7622 N   0  0  0  0  0  0  0  0  0  0  0  0
   -1.7570   30.0230    2.1919 C   0  0  0  0  0  0  0  0  0  0  0  0
   -0.9825   29.7886    1.0488 C   0  0  0  0  0  0  0  0  0  0  0  0
   -0.2404   30.7376    0.4226 N   0  0  0  0  0  0  0  0  0  0  0  0
   -0.2800   31.9550    0.9989 C   0  0  0  0  0  0  0  0  0  0  0  0
   -1.0263   32.2051    2.1358 C   0  0  0  0  0  0  0  0  0  0  0  0
   -1.7720   31.2532    2.7473 N   0  0  0  0  0  0  0  0  0  0  0  0
   -4.3804   28.2305    4.0766 C   0  0  0  0  0  0  0  0  0  0  0  0
   -5.7320   28.6130    4.0773 C   0  0  0  0  0  0  0  0  0  0  0  0
   -6.7442   27.6574    4.1950 C   0  0  0  0  0  0  0  0  0  0  0  0
   -6.4197   26.3064    4.3112 C   0  0  0  0  0  0  0  0  0  0  0  0
   -5.0832   25.9149    4.3080 C   0  0  0  0  0  0  0  0  0  0  0  0
   -4.6819   24.2473    4.4454 Cl  0  0  0  0  0  0  0  0  0  0  0  0
   -4.0681   26.8640    4.1911 C   0  0  0  0  0  0  0  0  0  0  0  0
  1  2  1  0
  2  3  1  0
  3  4  1  0
  4  5  2  0
  5  6  1  0
  6  7  2  0
  7  8  1  0
  8  9  2  0
  2 10  1  0
 10 11  2  0
 11 12  1  0
 12 13  2  0
 13 14  1  0
 14 15  1  0
 14 16  2  0
  9  4  1  0
 16 10  1  0
M  END
>  <Energy>  (745) 
50.160085369694642

>  <Energy_Delta>  (745) 
2.3968330519618277

>  <std_smi>  (745) 
CC(Nc1cnccn1)c1cccc(Cl)c1

>  <enum_smi>  (745) 
CC(Nc1cnccn1)c1cccc(Cl)c1

>  <enum_code>  (745) 
B

>  <o3da_score>  (745) 
73.904471200336587

>  <o3da_score_rel>  (745) 
0.29422443786362423

>  <o3da_align>  (745) 
0.58287364225161187

>  <RMSD>  (745) 
0.32338113419492287

>  <CONVERGED>  (745) 
0

>  <ENERGY>  (745) 
48.94322278350645

$$$$
6620cc01-fc2b-4cc4-81f0-045e40704b17
     RDKit          3D

 16 17  0  0  0  0  0  0  0  0999 V2000
   -3.2640   28.9308    6.1077 C   0  0  0  0  0  0  0  0  0  0  0  0
   -4.2692   28.1576    5.2450 C   0  0  0  0  0  0  0  0  0  0  0  0
   -4.5660   28.8623    3.9869 N   0  0  0  0  0  0  0  0  0  0  0  0
   -3.5056   29.2596    3.1796 C   0  0  0  0  0  0  0  0  0  0  0  0
   -2.5792   28.3940    2.5972 C   0  0  0  0  0  0  0  0  0  0  0  0
   -1.5471   28.8102    1.8169 N   0  0  0  0  0  0  0  0  0  0  0  0
   -1.4888   30.1415    1.6149 C   0  0  0  0  0  0  0  0  0  0  0  0
   -2.4119   31.0093    2.1686 C   0  0  0  0  0  0  0  0  0  0  0  0
   -3.4302   30.5888    2.9564 N   0  0  0  0  0  0  0  0  0  0  0  0
   -3.9838   26.6815    5.0095 C   0  0  0  0  0  0  0  0  0  0  0  0
   -2.8040   26.0489    5.4342 C   0  0  0  0  0  0  0  0  0  0  0  0
   -2.5951   24.6864    5.1976 C   0  0  0  0  0  0  0  0  0  0  0  0
   -3.5632   23.9325    4.5369 C   0  0  0  0  0  0  0  0  0  0  0  0
   -4.7391   24.5435    4.1133 C   0  0  0  0  0  0  0  0  0  0  0  0
   -5.9377   23.6170    3.2977 Cl  0  0  0  0  0  0  0  0  0  0  0  0
   -4.9519   25.9020    4.3460 C   0  0  0  0  0  0  0  0  0  0  0  0
  1  2  1  0
  2  3  1  0
  3  4  1  0
  4  5  2  0
  5  6  1  0
  6  7  2  0
  7  8  1  0
  8  9  2  0
  2 10  1  0
 10 11  2  0
 11 12  1  0
 12 13  2  0
 13 14  1  0
 14 15  1  0
 14 16  2  0
  9  4  1  0
 16 10  1  0
M  END
>  <Energy>  (746) 
50.822916934903525

>  <Energy_Delta>  (746) 
3.0596646171707107

>  <std_smi>  (746) 
CC(Nc1cnccn1)c1cccc(Cl)c1

>  <enum_smi>  (746) 
CC(Nc1cnccn1)c1cccc(Cl)c1

>  <enum_code>  (746) 
B

>  <o3da_score>  (746) 
80.390922946919289

>  <o3da_score_rel>  (746) 
0.32004794472147624

>  <o3da_align>  (746) 
0.45969270424462794

>  <RMSD>  (746) 
6.9075585985036887e-05

>  <CONVERGED>  (746) 
0

>  <ENERGY>  (746) 
50.822916899085804

$$$$
6620cc01-fc2b-4cc4-81f0-045e40704b17
     RDKit          3D

 16 17  0  0  0  0  0  0  0  0999 V2000
   -5.2226   28.2964    6.2707 C   0  0  0  0  0  0  0  0  0  0  0  0
   -4.4968   28.0827    4.9358 C   0  0  0  0  0  0  0  0  0  0  0  0
   -3.3358   28.9753    4.9044 N   0  0  0  0  0  0  0  0  0  0  0  0
   -2.9455   29.4645    3.6478 C   0  0  0  0  0  0  0  0  0  0  0  0
   -1.7855   30.2435    3.5467 C   0  0  0  0  0  0  0  0  0  0  0  0
   -1.3322   30.7950    2.3916 N   0  0  0  0  0  0  0  0  0  0  0  0
   -2.1054   30.5584    1.3141 C   0  0  0  0  0  0  0  0  0  0  0  0
   -3.2663   29.8118    1.3937 C   0  0  0  0  0  0  0  0  0  0  0  0
   -3.7063   29.2611    2.5508 N   0  0  0  0  0  0  0  0  0  0  0  0
   -4.0483   26.6398    4.7406 C   0  0  0  0  0  0  0  0  0  0  0  0
   -4.2390   26.0219    3.4927 C   0  0  0  0  0  0  0  0  0  0  0  0
   -3.8247   24.7069    3.2689 C   0  0  0  0  0  0  0  0  0  0  0  0
   -3.2044   23.9892    4.2891 C   0  0  0  0  0  0  0  0  0  0  0  0
   -2.9965   24.5931    5.5262 C   0  0  0  0  0  0  0  0  0  0  0  0
   -2.2183   23.7137    6.7848 Cl  0  0  0  0  0  0  0  0  0  0  0  0
   -3.4085   25.9074    5.7551 C   0  0  0  0  0  0  0  0  0  0  0  0
  1  2  1  0
  2  3  1  0
  3  4  1  0
  4  5  2  0
  5  6  1  0
  6  7  2  0
  7  8  1  0
  8  9  2  0
  2 10  1  0
 10 11  2  0
 11 12  1  0
 12 13  2  0
 13 14  1  0
 14 15  1  0
 14 16  2  0
  9  4  1  0
 16 10  1  0
M  END
>  <Energy>  (747) 
51.425997669009924

>  <Energy_Delta>  (747) 
3.6627453512771098

>  <std_smi>  (747) 
CC(Nc1cnccn1)c1cccc(Cl)c1

>  <enum_smi>  (747) 
CC(Nc1cnccn1)c1cccc(Cl)c1

>  <enum_code>  (747) 
B

>  <o3da_score>  (747) 
84.319001080884107

>  <o3da_score_rel>  (747) 
0.33568619450635434

>  <o3da_align>  (747) 
0.58907246318914164

>  <RMSD>  (747) 
0.41220363533649801

>  <CONVERGED>  (747) 
0

>  <ENERGY>  (747) 
50.129010347754161

$$$$
6620cc01-fc2b-4cc4-81f0-045e40704b17
     RDKit          3D

 16 17  0  0  0  0  0  0  0  0999 V2000
   -4.6044   27.7532    7.3410 C   0  0  0  0  0  0  0  0  0  0  0  0
   -4.9684   27.3867    5.8979 C   0  0  0  0  0  0  0  0  0  0  0  0
   -4.8485   28.5333    4.9876 N   0  0  0  0  0  0  0  0  0  0  0  0
   -3.5876   29.0737    4.7060 C   0  0  0  0  0  0  0  0  0  0  0  0
   -3.4888   30.1400    3.8027 C   0  0  0  0  0  0  0  0  0  0  0  0
   -2.3221   30.7336    3.4405 N   0  0  0  0  0  0  0  0  0  0  0  0
   -1.2217   30.1984    4.0043 C   0  0  0  0  0  0  0  0  0  0  0  0
   -1.2925   29.1376    4.8876 C   0  0  0  0  0  0  0  0  0  0  0  0
   -2.4651   28.5670    5.2532 N   0  0  0  0  0  0  0  0  0  0  0  0
   -4.3509   26.1243    5.3130 C   0  0  0  0  0  0  0  0  0  0  0  0
   -4.9039   25.5726    4.1414 C   0  0  0  0  0  0  0  0  0  0  0  0
   -4.3756   24.4134    3.5687 C   0  0  0  0  0  0  0  0  0  0  0  0
   -3.2794   23.7863    4.1560 C   0  0  0  0  0  0  0  0  0  0  0  0
   -2.7157   24.3255    5.3095 C   0  0  0  0  0  0  0  0  0  0  0  0
   -1.3524   23.5581    6.0295 Cl  0  0  0  0  0  0  0  0  0  0  0  0
   -3.2430   25.4818    5.8874 C   0  0  0  0  0  0  0  0  0  0  0  0
  1  2  1  0
  2  3  1  0
  3  4  1  0
  4  5  2  0
  5  6  1  0
  6  7  2  0
  7  8  1  0
  8  9  2  0
  2 10  1  0
 10 11  2  0
 11 12  1  0
 12 13  2  0
 13 14  1  0
 14 15  1  0
 14 16  2  0
  9  4  1  0
 16 10  1  0
M  END
>  <Energy>  (748) 
54.463887774805286

>  <Energy_Delta>  (748) 
6.7006354570724724

>  <std_smi>  (748) 
CC(Nc1cnccn1)c1cccc(Cl)c1

>  <enum_smi>  (748) 
CC(Nc1cnccn1)c1cccc(Cl)c1

>  <enum_code>  (748) 
B

>  <o3da_score>  (748) 
74.930364784932152

>  <o3da_score_rel>  (748) 
0.298308669282009

>  <o3da_align>  (748) 
0.52425557831602076

>  <RMSD>  (748) 
0.21910183650472942

>  <CONVERGED>  (748) 
0

>  <ENERGY>  (748) 
55.221642086300434

$$$$
6620cc01-fc2b-4cc4-81f0-045e40704b17
     RDKit          3D

 16 17  0  0  0  0  0  0  0  0999 V2000
   -3.0673   28.9221    6.4380 C   0  0  0  0  0  0  0  0  0  0  0  0
   -3.7288   29.0015    5.0592 C   0  0  0  0  0  0  0  0  0  0  0  0
   -4.6789   27.9101    4.8083 N   0  0  0  0  0  0  0  0  0  0  0  0
   -4.2416   26.5811    4.7462 C   0  0  0  0  0  0  0  0  0  0  0  0
   -5.1695   25.5730    4.4499 C   0  0  0  0  0  0  0  0  0  0  0  0
   -4.8709   24.2500    4.3763 N   0  0  0  0  0  0  0  0  0  0  0  0
   -3.5833   23.9506    4.6338 C   0  0  0  0  0  0  0  0  0  0  0  0
   -2.6543   24.9238    4.9496 C   0  0  0  0  0  0  0  0  0  0  0  0
   -2.9669   26.2405    5.0174 N   0  0  0  0  0  0  0  0  0  0  0  0
   -2.8184   29.2483    3.8653 C   0  0  0  0  0  0  0  0  0  0  0  0
   -3.3138   29.9559    2.7534 C   0  0  0  0  0  0  0  0  0  0  0  0
   -2.5119   30.1926    1.6341 C   0  0  0  0  0  0  0  0  0  0  0  0
   -1.2018   29.7201    1.6045 C   0  0  0  0  0  0  0  0  0  0  0  0
   -0.7010   29.0116    2.6935 C   0  0  0  0  0  0  0  0  0  0  0  0
    0.9144   28.4176    2.6534 Cl  0  0  0  0  0  0  0  0  0  0  0  0
   -1.4974   28.7766    3.8151 C   0  0  0  0  0  0  0  0  0  0  0  0
  1  2  1  0
  2  3  1  0
  3  4  1  0
  4  5  2  0
  5  6  1  0
  6  7  2  0
  7  8  1  0
  8  9  2  0
  2 10  1  0
 10 11  2  0
 11 12  1  0
 12 13  2  0
 13 14  1  0
 14 15  1  0
 14 16  2  0
  9  4  1  0
 16 10  1  0
M  END
>  <Energy>  (749) 
54.463887881934681

>  <Energy_Delta>  (749) 
6.7006355642018676

>  <std_smi>  (749) 
CC(Nc1cnccn1)c1cccc(Cl)c1

>  <enum_smi>  (749) 
CC(Nc1cnccn1)c1cccc(Cl)c1

>  <enum_code>  (749) 
B

>  <o3da_score>  (749) 
76.06709536679638

>  <o3da_score_rel>  (749) 
0.30283415889067927

>  <o3da_align>  (749) 
0.33364536214811358

>  <RMSD>  (749) 
7.8211469686033082e-05

>  <CONVERGED>  (749) 
0

>  <ENERGY>  (749) 
54.463887747930599

$$$$
6620cc01-fc2b-4cc4-81f0-045e40704b17
     RDKit          3D

 16 17  0  0  0  0  0  0  0  0999 V2000
   -3.6864   29.1258    5.4393 C   0  0  0  0  0  0  0  0  0  0  0  0
   -4.5837   28.1493    4.6708 C   0  0  0  0  0  0  0  0  0  0  0  0
   -4.9188   28.6461    3.3296 N   0  0  0  0  0  0  0  0  0  0  0  0
   -3.9197   28.7580    2.3551 C   0  0  0  0  0  0  0  0  0  0  0  0
   -4.2668   29.1965    1.0703 C   0  0  0  0  0  0  0  0  0  0  0  0
   -3.3898   29.3300    0.0420 N   0  0  0  0  0  0  0  0  0  0  0  0
   -2.1234   28.9769    0.3353 C   0  0  0  0  0  0  0  0  0  0  0  0
   -1.7597   28.5277    1.5909 C   0  0  0  0  0  0  0  0  0  0  0  0
   -2.6415   28.4165    2.6129 N   0  0  0  0  0  0  0  0  0  0  0  0
   -4.1811   26.6812    4.6539 C   0  0  0  0  0  0  0  0  0  0  0  0
   -2.9263   26.2268    5.0897 C   0  0  0  0  0  0  0  0  0  0  0  0
   -2.6067   24.8657    5.0666 C   0  0  0  0  0  0  0  0  0  0  0  0
   -3.5364   23.9358    4.6056 C   0  0  0  0  0  0  0  0  0  0  0  0
   -4.7822   24.3713    4.1640 C   0  0  0  0  0  0  0  0  0  0  0  0
   -5.9327   23.2272    3.5895 Cl  0  0  0  0  0  0  0  0  0  0  0  0
   -5.1058   25.7277    4.1865 C   0  0  0  0  0  0  0  0  0  0  0  0
  1  2  1  0
  2  3  1  0
  3  4  1  0
  4  5  2  0
  5  6  1  0
  6  7  2  0
  7  8  1  0
  8  9  2  0
  2 10  1  0
 10 11  2  0
 11 12  1  0
 12 13  2  0
 13 14  1  0
 14 15  1  0
 14 16  2  0
  9  4  1  0
 16 10  1  0
M  END
>  <Energy>  (750) 
55.417192362090312

>  <Energy_Delta>  (750) 
7.6539400443574976

>  <std_smi>  (750) 
CC(Nc1cnccn1)c1cccc(Cl)c1

>  <enum_smi>  (750) 
CC(Nc1cnccn1)c1cccc(Cl)c1

>  <enum_code>  (750) 
B

>  <o3da_score>  (750) 
73.315915782750196

>  <o3da_score_rel>  (750) 
0.29188131323153621

>  <o3da_align>  (750) 
0.2947432986360905

>  <RMSD>  (750) 
8.562380972014486e-05

>  <CONVERGED>  (750) 
0

>  <ENERGY>  (750) 
55.417192213685894

$$$$
a99002c6-7715-45cd-8960-3fb75073e4ca
     RDKit          3D

 16 17  0  0  0  0  0  0  0  0999 V2000
   -5.2182   28.4038    6.2220 C   0  0  0  0  0  0  0  0  0  0  0  0
   -4.1718   28.1360    5.1338 C   0  0  2  0  0  0  0  0  0  0  0  0
   -4.6095   28.7692    3.8830 N   0  0  0  0  0  0  0  0  0  0  0  0
   -3.5719   29.2441    3.0770 C   0  0  0  0  0  0  0  0  0  0  0  0
   -2.5737   28.4392    2.5244 C   0  0  0  0  0  0  0  0  0  0  0  0
   -1.5675   28.9184    1.7479 N   0  0  0  0  0  0  0  0  0  0  0  0
   -1.6107   30.2465    1.5187 C   0  0  0  0  0  0  0  0  0  0  0  0
   -2.6043   31.0519    2.0454 C   0  0  0  0  0  0  0  0  0  0  0  0
   -3.5968   30.5705    2.8317 N   0  0  0  0  0  0  0  0  0  0  0  0
   -3.9952   26.6365    4.9561 C   0  0  0  0  0  0  0  0  0  0  0  0
   -2.8695   25.9928    5.4966 C   0  0  0  0  0  0  0  0  0  0  0  0
   -2.6977   24.6144    5.3501 C   0  0  0  0  0  0  0  0  0  0  0  0
   -3.6506   23.8604    4.6664 C   0  0  0  0  0  0  0  0  0  0  0  0
   -4.7733   24.4872    4.1313 C   0  0  0  0  0  0  0  0  0  0  0  0
   -5.9505   23.5562    3.2898 Cl  0  0  0  0  0  0  0  0  0  0  0  0
   -4.9502   25.8629    4.2735 C   0  0  0  0  0  0  0  0  0  0  0  0
  2  1  1  1
  2  3  1  0
  3  4  1  0
  4  5  2  0
  5  6  1  0
  6  7  2  0
  7  8  1  0
  8  9  2  0
  2 10  1  0
 10 11  2  0
 11 12  1  0
 12 13  2  0
 13 14  1  0
 14 15  1  0
 14 16  2  0
  9  4  1  0
 16 10  1  0
M  END
>  <Energy>  (751) 
47.700147431518424

>  <Energy_Delta>  (751) 
0

>  <std_smi>  (751) 
CC(Nc1cnccn1)c1cccc(Cl)c1

>  <enum_smi>  (751) 
C[C@H](Nc1cnccn1)c1cccc(Cl)c1

>  <enum_code>  (751) 
C

>  <parent_uuid>  (751) 
6620cc01-fc2b-4cc4-81f0-045e40704b17

>  <o3da_score>  (751) 
76.901175622752177

>  <o3da_score_rel>  (751) 
0.30615475357806299

>  <o3da_align>  (751) 
0.38617296082128383

>  <RMSD>  (751) 
6.7283902717607519e-05

>  <CONVERGED>  (751) 
0

>  <ENERGY>  (751) 
47.700147393616263

$$$$
a99002c6-7715-45cd-8960-3fb75073e4ca
     RDKit          3D

 16 17  0  0  0  0  0  0  0  0999 V2000
   -5.0926   28.5327    6.2035 C   0  0  0  0  0  0  0  0  0  0  0  0
   -3.7799   28.7545    5.4440 C   0  0  2  0  0  0  0  0  0  0  0  0
   -4.0981   29.0396    4.0443 N   0  0  0  0  0  0  0  0  0  0  0  0
   -3.0632   29.4886    3.2305 C   0  0  0  0  0  0  0  0  0  0  0  0
   -2.2319   30.5672    3.5394 C   0  0  0  0  0  0  0  0  0  0  0  0
   -1.2240   30.9974    2.7378 N   0  0  0  0  0  0  0  0  0  0  0  0
   -1.0883   30.3110    1.5847 C   0  0  0  0  0  0  0  0  0  0  0  0
   -1.9189   29.2552    1.2541 C   0  0  0  0  0  0  0  0  0  0  0  0
   -2.9186   28.8301    2.0625 N   0  0  0  0  0  0  0  0  0  0  0  0
   -2.8509   27.5564    5.5716 C   0  0  0  0  0  0  0  0  0  0  0  0
   -1.5530   27.7310    6.0824 C   0  0  0  0  0  0  0  0  0  0  0  0
   -0.6771   26.6490    6.1988 C   0  0  0  0  0  0  0  0  0  0  0  0
   -1.0836   25.3762    5.8032 C   0  0  0  0  0  0  0  0  0  0  0  0
   -2.3642   25.1913    5.2891 C   0  0  0  0  0  0  0  0  0  0  0  0
   -2.8667   23.6208    4.7955 Cl  0  0  0  0  0  0  0  0  0  0  0  0
   -3.2441   26.2679    5.1706 C   0  0  0  0  0  0  0  0  0  0  0  0
  2  1  1  1
  2  3  1  0
  3  4  1  0
  4  5  2  0
  5  6  1  0
  6  7  2  0
  7  8  1  0
  8  9  2  0
  2 10  1  0
 10 11  2  0
 11 12  1  0
 12 13  2  0
 13 14  1  0
 14 15  1  0
 14 16  2  0
  9  4  1  0
 16 10  1  0
M  END
>  <Energy>  (752) 
48.258127501168389

>  <Energy_Delta>  (752) 
0.55798006964996461

>  <std_smi>  (752) 
CC(Nc1cnccn1)c1cccc(Cl)c1

>  <enum_smi>  (752) 
C[C@H](Nc1cnccn1)c1cccc(Cl)c1

>  <enum_code>  (752) 
C

>  <parent_uuid>  (752) 
6620cc01-fc2b-4cc4-81f0-045e40704b17

>  <o3da_score>  (752) 
71.168170817908717

>  <o3da_score_rel>  (752) 
0.28333082846801039

>  <o3da_align>  (752) 
0.55738801499834945

>  <RMSD>  (752) 
7.6847008955777476e-05

>  <CONVERGED>  (752) 
0

>  <ENERGY>  (752) 
48.258127482243729

$$$$
a99002c6-7715-45cd-8960-3fb75073e4ca
     RDKit          3D

 16 17  0  0  0  0  0  0  0  0999 V2000
   -6.0793   28.2822    5.4050 C   0  0  0  0  0  0  0  0  0  0  0  0
   -4.6257   28.0945    4.9563 C   0  0  2  0  0  0  0  0  0  0  0  0
   -4.4236   28.8521    3.7198 N   0  0  0  0  0  0  0  0  0  0  0  0
   -3.1077   29.0640    3.3178 C   0  0  0  0  0  0  0  0  0  0  0  0
   -2.1257   29.6409    4.1259 C   0  0  0  0  0  0  0  0  0  0  0  0
   -0.8439   29.8426    3.7275 N   0  0  0  0  0  0  0  0  0  0  0  0
   -0.5791   29.4590    2.4620 C   0  0  0  0  0  0  0  0  0  0  0  0
   -1.5475   28.9084    1.6417 C   0  0  0  0  0  0  0  0  0  0  0  0
   -2.8234   28.7071    2.0488 N   0  0  0  0  0  0  0  0  0  0  0  0
   -4.2756   26.6263    4.7626 C   0  0  0  0  0  0  0  0  0  0  0  0
   -5.0381   25.7816    3.9372 C   0  0  0  0  0  0  0  0  0  0  0  0
   -4.6859   24.4407    3.7638 C   0  0  0  0  0  0  0  0  0  0  0  0
   -3.5628   23.9246    4.4073 C   0  0  0  0  0  0  0  0  0  0  0  0
   -2.7933   24.7534    5.2191 C   0  0  0  0  0  0  0  0  0  0  0  0
   -1.4015   24.1206    6.0093 Cl  0  0  0  0  0  0  0  0  0  0  0  0
   -3.1405   26.0931    5.3975 C   0  0  0  0  0  0  0  0  0  0  0  0
  2  1  1  6
  2  3  1  0
  3  4  1  0
  4  5  2  0
  5  6  1  0
  6  7  2  0
  7  8  1  0
  8  9  2  0
  2 10  1  0
 10 11  2  0
 11 12  1  0
 12 13  2  0
 13 14  1  0
 14 15  1  0
 14 16  2  0
  9  4  1  0
 16 10  1  0
M  END
>  <Energy>  (753) 
48.310098736202406

>  <Energy_Delta>  (753) 
0.60995130468398173

>  <std_smi>  (753) 
CC(Nc1cnccn1)c1cccc(Cl)c1

>  <enum_smi>  (753) 
C[C@H](Nc1cnccn1)c1cccc(Cl)c1

>  <enum_code>  (753) 
C

>  <parent_uuid>  (753) 
6620cc01-fc2b-4cc4-81f0-045e40704b17

>  <o3da_score>  (753) 
76.35923409773558

>  <o3da_score_rel>  (753) 
0.30399720562510185

>  <o3da_align>  (753) 
0.43287031625489997

>  <RMSD>  (753) 
6.6067332680256786e-05

>  <CONVERGED>  (753) 
0

>  <ENERGY>  (753) 
48.310098712820711

$$$$
a99002c6-7715-45cd-8960-3fb75073e4ca
     RDKit          3D

 16 17  0  0  0  0  0  0  0  0999 V2000
   -1.2943   28.3639    4.3389 C   0  0  0  0  0  0  0  0  0  0  0  0
   -2.3593   28.2607    3.2403 C   0  0  2  0  0  0  0  0  0  0  0  0
   -2.8557   29.5794    2.8471 N   0  0  0  0  0  0  0  0  0  0  0  0
   -1.9647   30.4255    2.1982 C   0  0  0  0  0  0  0  0  0  0  0  0
   -1.2674   30.0835    1.0378 C   0  0  0  0  0  0  0  0  0  0  0  0
   -0.3953   30.9135    0.4106 N   0  0  0  0  0  0  0  0  0  0  0  0
   -0.2610   32.1282    0.9811 C   0  0  0  0  0  0  0  0  0  0  0  0
   -0.9593   32.4875    2.1200 C   0  0  0  0  0  0  0  0  0  0  0  0
   -1.8182   31.6484    2.7468 N   0  0  0  0  0  0  0  0  0  0  0  0
   -3.5562   27.4252    3.6742 C   0  0  0  0  0  0  0  0  0  0  0  0
   -4.0600   26.4327    2.8151 C   0  0  0  0  0  0  0  0  0  0  0  0
   -5.1647   25.6594    3.1805 C   0  0  0  0  0  0  0  0  0  0  0  0
   -5.7898   25.8721    4.4075 C   0  0  0  0  0  0  0  0  0  0  0  0
   -5.3111   26.8624    5.2609 C   0  0  0  0  0  0  0  0  0  0  0  0
   -6.0884   27.1346    6.7725 Cl  0  0  0  0  0  0  0  0  0  0  0  0
   -4.2076   27.6380    4.9016 C   0  0  0  0  0  0  0  0  0  0  0  0
  2  1  1  1
  2  3  1  0
  3  4  1  0
  4  5  2  0
  5  6  1  0
  6  7  2  0
  7  8  1  0
  8  9  2  0
  2 10  1  0
 10 11  2  0
 11 12  1  0
 12 13  2  0
 13 14  1  0
 14 15  1  0
 14 16  2  0
  9  4  1  0
 16 10  1  0
M  END
>  <Energy>  (754) 
48.538259986371571

>  <Energy_Delta>  (754) 
0.83811255485314717

>  <std_smi>  (754) 
CC(Nc1cnccn1)c1cccc(Cl)c1

>  <enum_smi>  (754) 
C[C@H](Nc1cnccn1)c1cccc(Cl)c1

>  <enum_code>  (754) 
C

>  <parent_uuid>  (754) 
6620cc01-fc2b-4cc4-81f0-045e40704b17

>  <o3da_score>  (754) 
66.006395926930324

>  <o3da_score_rel>  (754) 
0.26278105264240686

>  <o3da_align>  (754) 
0.55151860184301893

>  <RMSD>  (754) 
7.4878618194746746e-05

>  <CONVERGED>  (754) 
0

>  <ENERGY>  (754) 
48.538259970849936

$$$$
a99002c6-7715-45cd-8960-3fb75073e4ca
     RDKit          3D

 16 17  0  0  0  0  0  0  0  0999 V2000
   -1.2152   29.4699    4.9118 C   0  0  0  0  0  0  0  0  0  0  0  0
   -2.4861   29.5083    4.0541 C   0  0  2  0  0  0  0  0  0  0  0  0
   -2.6711   30.8158    3.4252 N   0  0  0  0  0  0  0  0  0  0  0  0
   -1.7434   31.1972    2.4639 C   0  0  0  0  0  0  0  0  0  0  0  0
   -1.4304   30.4366    1.3356 C   0  0  0  0  0  0  0  0  0  0  0  0
   -0.5197   30.8135    0.4021 N   0  0  0  0  0  0  0  0  0  0  0  0
    0.0594   32.0104    0.6276 C   0  0  0  0  0  0  0  0  0  0  0  0
   -0.2544   32.7832    1.7313 C   0  0  0  0  0  0  0  0  0  0  0  0
   -1.1550   32.3938    2.6653 N   0  0  0  0  0  0  0  0  0  0  0  0
   -3.7408   29.2040    4.8618 C   0  0  0  0  0  0  0  0  0  0  0  0
   -3.9996   29.8136    6.1019 C   0  0  0  0  0  0  0  0  0  0  0  0
   -5.1682   29.5258    6.8123 C   0  0  0  0  0  0  0  0  0  0  0  0
   -6.1013   28.6321    6.2903 C   0  0  0  0  0  0  0  0  0  0  0  0
   -5.8653   28.0346    5.0554 C   0  0  0  0  0  0  0  0  0  0  0  0
   -7.0204   26.9380    4.4030 Cl  0  0  0  0  0  0  0  0  0  0  0  0
   -4.7001   28.3176    4.3415 C   0  0  0  0  0  0  0  0  0  0  0  0
  2  1  1  1
  2  3  1  0
  3  4  1  0
  4  5  2  0
  5  6  1  0
  6  7  2  0
  7  8  1  0
  8  9  2  0
  2 10  1  0
 10 11  2  0
 11 12  1  0
 12 13  2  0
 13 14  1  0
 14 15  1  0
 14 16  2  0
  9  4  1  0
 16 10  1  0
M  END
>  <Energy>  (755) 
48.545367230877936

>  <Energy_Delta>  (755) 
0.84521979935951208

>  <std_smi>  (755) 
CC(Nc1cnccn1)c1cccc(Cl)c1

>  <enum_smi>  (755) 
C[C@H](Nc1cnccn1)c1cccc(Cl)c1

>  <enum_code>  (755) 
C

>  <parent_uuid>  (755) 
6620cc01-fc2b-4cc4-81f0-045e40704b17

>  <o3da_score>  (755) 
78.612236726481441

>  <o3da_score_rel>  (755) 
0.3129667364421358

>  <o3da_align>  (755) 
0.42258347832004717

>  <RMSD>  (755) 
7.0689399949468455e-05

>  <CONVERGED>  (755) 
0

>  <ENERGY>  (755) 
48.545367220324046

$$$$
a99002c6-7715-45cd-8960-3fb75073e4ca
     RDKit          3D

 16 17  0  0  0  0  0  0  0  0999 V2000
   -5.9546   28.9989    3.3370 C   0  0  0  0  0  0  0  0  0  0  0  0
   -4.5220   28.4588    3.3852 C   0  0  2  0  0  0  0  0  0  0  0  0
   -4.2657   27.8628    4.6998 N   0  0  0  0  0  0  0  0  0  0  0  0
   -4.1476   26.4730    4.7151 C   0  0  0  0  0  0  0  0  0  0  0  0
   -5.1385   25.5983    4.2651 C   0  0  0  0  0  0  0  0  0  0  0  0
   -5.0148   24.2465    4.2844 N   0  0  0  0  0  0  0  0  0  0  0  0
   -3.8547   23.7915    4.8002 C   0  0  0  0  0  0  0  0  0  0  0  0
   -2.8720   24.6459    5.2667 C   0  0  0  0  0  0  0  0  0  0  0  0
   -2.9991   25.9940    5.2336 N   0  0  0  0  0  0  0  0  0  0  0  0
   -3.5041   29.5641    3.1326 C   0  0  0  0  0  0  0  0  0  0  0  0
   -3.4607   30.7232    3.9274 C   0  0  0  0  0  0  0  0  0  0  0  0
   -2.5118   31.7200    3.6887 C   0  0  0  0  0  0  0  0  0  0  0  0
   -1.5878   31.5705    2.6561 C   0  0  0  0  0  0  0  0  0  0  0  0
   -1.6134   30.4217    1.8696 C   0  0  0  0  0  0  0  0  0  0  0  0
   -0.4682   30.2318    0.5989 Cl  0  0  0  0  0  0  0  0  0  0  0  0
   -2.5588   29.4220    2.1032 C   0  0  0  0  0  0  0  0  0  0  0  0
  2  1  1  1
  2  3  1  0
  3  4  1  0
  4  5  2  0
  5  6  1  0
  6  7  2  0
  7  8  1  0
  8  9  2  0
  2 10  1  0
 10 11  2  0
 11 12  1  0
 12 13  2  0
 13 14  1  0
 14 15  1  0
 14 16  2  0
  9  4  1  0
 16 10  1  0
M  END
>  <Energy>  (756) 
48.572181451370412

>  <Energy_Delta>  (756) 
0.87203401985198781

>  <std_smi>  (756) 
CC(Nc1cnccn1)c1cccc(Cl)c1

>  <enum_smi>  (756) 
C[C@H](Nc1cnccn1)c1cccc(Cl)c1

>  <enum_code>  (756) 
C

>  <parent_uuid>  (756) 
6620cc01-fc2b-4cc4-81f0-045e40704b17

>  <o3da_score>  (756) 
89.057798208449555

>  <o3da_score_rel>  (756) 
0.35455203439888511

>  <o3da_align>  (756) 
0.52792499109674496

>  <RMSD>  (756) 
6.7880244054195168e-05

>  <CONVERGED>  (756) 
0

>  <ENERGY>  (756) 
48.572181445015893

$$$$
a99002c6-7715-45cd-8960-3fb75073e4ca
     RDKit          3D

 16 17  0  0  0  0  0  0  0  0999 V2000
   -5.7594   28.4474    5.0923 C   0  0  0  0  0  0  0  0  0  0  0  0
   -4.3718   28.0285    4.5965 C   0  0  2  0  0  0  0  0  0  0  0  0
   -4.2078   28.4309    3.1966 N   0  0  0  0  0  0  0  0  0  0  0  0
   -3.3135   29.4775    2.9732 C   0  0  0  0  0  0  0  0  0  0  0  0
   -3.4261   30.7414    3.5560 C   0  0  0  0  0  0  0  0  0  0  0  0
   -2.5509   31.7548    3.3317 N   0  0  0  0  0  0  0  0  0  0  0  0
   -1.5559   31.4630    2.4693 C   0  0  0  0  0  0  0  0  0  0  0  0
   -1.4423   30.2213    1.8704 C   0  0  0  0  0  0  0  0  0  0  0  0
   -2.3125   29.2115    2.1101 N   0  0  0  0  0  0  0  0  0  0  0  0
   -4.1730   26.5221    4.7078 C   0  0  0  0  0  0  0  0  0  0  0  0
   -3.0669   26.0115    5.4075 C   0  0  0  0  0  0  0  0  0  0  0  0
   -2.8599   24.6337    5.5111 C   0  0  0  0  0  0  0  0  0  0  0  0
   -3.7516   23.7464    4.9109 C   0  0  0  0  0  0  0  0  0  0  0  0
   -4.8447   24.2404    4.2039 C   0  0  0  0  0  0  0  0  0  0  0  0
   -5.9406   23.1463    3.4532 Cl  0  0  0  0  0  0  0  0  0  0  0  0
   -5.0567   25.6151    4.0966 C   0  0  0  0  0  0  0  0  0  0  0  0
  2  1  1  6
  2  3  1  0
  3  4  1  0
  4  5  2  0
  5  6  1  0
  6  7  2  0
  7  8  1  0
  8  9  2  0
  2 10  1  0
 10 11  2  0
 11 12  1  0
 12 13  2  0
 13 14  1  0
 14 15  1  0
 14 16  2  0
  9  4  1  0
 16 10  1  0
M  END
>  <Energy>  (757) 
48.63552443881531

>  <Energy_Delta>  (757) 
0.93537700729688567

>  <std_smi>  (757) 
CC(Nc1cnccn1)c1cccc(Cl)c1

>  <enum_smi>  (757) 
C[C@H](Nc1cnccn1)c1cccc(Cl)c1

>  <enum_code>  (757) 
C

>  <parent_uuid>  (757) 
6620cc01-fc2b-4cc4-81f0-045e40704b17

>  <o3da_score>  (757) 
82.202806535329557

>  <o3da_score_rel>  (757) 
0.32726131654615565

>  <o3da_align>  (757) 
0.42326180787775963

>  <RMSD>  (757) 
7.1788938755189141e-05

>  <CONVERGED>  (757) 
0

>  <ENERGY>  (757) 
48.635524420277591

$$$$
a99002c6-7715-45cd-8960-3fb75073e4ca
     RDKit          3D

 16 17  0  0  0  0  0  0  0  0999 V2000
   -3.0872   29.1565    3.5019 C   0  0  0  0  0  0  0  0  0  0  0  0
   -3.7264   28.9326    4.8782 C   0  0  2  0  0  0  0  0  0  0  0  0
   -4.7223   27.8619    4.8297 N   0  0  0  0  0  0  0  0  0  0  0  0
   -4.2488   26.5461    4.8010 C   0  0  0  0  0  0  0  0  0  0  0  0
   -5.1588   25.4863    4.7080 C   0  0  0  0  0  0  0  0  0  0  0  0
   -4.8061   24.1749    4.7012 N   0  0  0  0  0  0  0  0  0  0  0  0
   -3.4833   23.9470    4.8190 C   0  0  0  0  0  0  0  0  0  0  0  0
   -2.5686   24.9773    4.9350 C   0  0  0  0  0  0  0  0  0  0  0  0
   -2.9312   26.2828    4.9322 N   0  0  0  0  0  0  0  0  0  0  0  0
   -4.4336   30.1699    5.4236 C   0  0  0  0  0  0  0  0  0  0  0  0
   -4.4522   30.3833    6.8146 C   0  0  0  0  0  0  0  0  0  0  0  0
   -5.1043   31.4882    7.3667 C   0  0  0  0  0  0  0  0  0  0  0  0
   -5.7603   32.3946    6.5371 C   0  0  0  0  0  0  0  0  0  0  0  0
   -5.7664   32.1863    5.1605 C   0  0  0  0  0  0  0  0  0  0  0  0
   -6.5897   33.2967    4.1342 Cl  0  0  0  0  0  0  0  0  0  0  0  0
   -5.1156   31.0833    4.6029 C   0  0  0  0  0  0  0  0  0  0  0  0
  2  1  1  6
  2  3  1  0
  3  4  1  0
  4  5  2  0
  5  6  1  0
  6  7  2  0
  7  8  1  0
  8  9  2  0
  2 10  1  0
 10 11  2  0
 11 12  1  0
 12 13  2  0
 13 14  1  0
 14 15  1  0
 14 16  2  0
  9  4  1  0
 16 10  1  0
M  END
>  <Energy>  (758) 
48.943222785634546

>  <Energy_Delta>  (758) 
1.2430753541161224

>  <std_smi>  (758) 
CC(Nc1cnccn1)c1cccc(Cl)c1

>  <enum_smi>  (758) 
C[C@H](Nc1cnccn1)c1cccc(Cl)c1

>  <enum_code>  (758) 
C

>  <parent_uuid>  (758) 
6620cc01-fc2b-4cc4-81f0-045e40704b17

>  <o3da_score>  (758) 
70.917155202497227

>  <o3da_score_rel>  (758) 
0.28233149883152281

>  <o3da_align>  (758) 
0.27304217747581411

>  <RMSD>  (758) 
0.32335286471232683

>  <CONVERGED>  (758) 
0

>  <ENERGY>  (758) 
50.160085354774843

$$$$
a99002c6-7715-45cd-8960-3fb75073e4ca
     RDKit          3D

 16 17  0  0  0  0  0  0  0  0999 V2000
   -4.9633   29.6724    5.3552 C   0  0  0  0  0  0  0  0  0  0  0  0
   -3.6775   28.9130    5.0044 C   0  0  2  0  0  0  0  0  0  0  0  0
   -3.1179   29.3922    3.7397 N   0  0  0  0  0  0  0  0  0  0  0  0
   -2.4313   30.6102    3.7609 C   0  0  0  0  0  0  0  0  0  0  0  0
   -1.9164   31.1343    2.5692 C   0  0  0  0  0  0  0  0  0  0  0  0
   -1.2114   32.2919    2.4856 N   0  0  0  0  0  0  0  0  0  0  0  0
   -1.0071   32.9131    3.6637 C   0  0  0  0  0  0  0  0  0  0  0  0
   -1.4865   32.4020    4.8556 C   0  0  0  0  0  0  0  0  0  0  0  0
   -2.1977   31.2510    4.9259 N   0  0  0  0  0  0  0  0  0  0  0  0
   -3.8682   27.4057    4.8558 C   0  0  0  0  0  0  0  0  0  0  0  0
   -5.0936   26.8096    4.5154 C   0  0  0  0  0  0  0  0  0  0  0  0
   -5.2013   25.4224    4.3743 C   0  0  0  0  0  0  0  0  0  0  0  0
   -4.0844   24.6099    4.5606 C   0  0  0  0  0  0  0  0  0  0  0  0
   -2.8599   25.1875    4.8822 C   0  0  0  0  0  0  0  0  0  0  0  0
   -1.4759   24.1888    5.1015 Cl  0  0  0  0  0  0  0  0  0  0  0  0
   -2.7474   26.5701    5.0255 C   0  0  0  0  0  0  0  0  0  0  0  0
  2  1  1  6
  2  3  1  0
  3  4  1  0
  4  5  2  0
  5  6  1  0
  6  7  2  0
  7  8  1  0
  8  9  2  0
  2 10  1  0
 10 11  2  0
 11 12  1  0
 12 13  2  0
 13 14  1  0
 14 15  1  0
 14 16  2  0
  9  4  1  0
 16 10  1  0
M  END
>  <Energy>  (759) 
48.974450455227512

>  <Energy_Delta>  (759) 
1.2743030237090878

>  <std_smi>  (759) 
CC(Nc1cnccn1)c1cccc(Cl)c1

>  <enum_smi>  (759) 
C[C@H](Nc1cnccn1)c1cccc(Cl)c1

>  <enum_code>  (759) 
C

>  <parent_uuid>  (759) 
6620cc01-fc2b-4cc4-81f0-045e40704b17

>  <o3da_score>  (759) 
75.825678527531522

>  <o3da_score_rel>  (759) 
0.30187304337669407

>  <o3da_align>  (759) 
0.5630978261132219

>  <RMSD>  (759) 
0.43713398158485683

>  <CONVERGED>  (759) 
0

>  <ENERGY>  (759) 
50.248059028488726

$$$$
a99002c6-7715-45cd-8960-3fb75073e4ca
     RDKit          3D

 16 17  0  0  0  0  0  0  0  0999 V2000
   -5.8521   28.3081    5.0842 C   0  0  0  0  0  0  0  0  0  0  0  0
   -4.3963   28.0946    4.6480 C   0  0  2  0  0  0  0  0  0  0  0  0
   -4.2064   28.7012    3.3253 N   0  0  0  0  0  0  0  0  0  0  0  0
   -2.8761   28.9998    2.9740 C   0  0  0  0  0  0  0  0  0  0  0  0
   -2.6091   29.5369    1.7085 C   0  0  0  0  0  0  0  0  0  0  0  0
   -1.3681   29.8613    1.2633 N   0  0  0  0  0  0  0  0  0  0  0  0
   -0.3730   29.6055    2.1357 C   0  0  0  0  0  0  0  0  0  0  0  0
   -0.6127   29.0671    3.3866 C   0  0  0  0  0  0  0  0  0  0  0  0
   -1.8571   28.7641    3.8272 N   0  0  0  0  0  0  0  0  0  0  0  0
   -4.0822   26.6057    4.6098 C   0  0  0  0  0  0  0  0  0  0  0  0
   -4.6802   25.7506    3.6679 C   0  0  0  0  0  0  0  0  0  0  0  0
   -4.3863   24.3854    3.6521 C   0  0  0  0  0  0  0  0  0  0  0  0
   -3.4876   23.8556    4.5765 C   0  0  0  0  0  0  0  0  0  0  0  0
   -2.8835   24.6948    5.5099 C   0  0  0  0  0  0  0  0  0  0  0  0
   -1.7675   24.0427    6.6470 Cl  0  0  0  0  0  0  0  0  0  0  0  0
   -3.1751   26.0587    5.5317 C   0  0  0  0  0  0  0  0  0  0  0  0
  2  1  1  6
  2  3  1  0
  3  4  1  0
  4  5  2  0
  5  6  1  0
  6  7  2  0
  7  8  1  0
  8  9  2  0
  2 10  1  0
 10 11  2  0
 11 12  1  0
 12 13  2  0
 13 14  1  0
 14 15  1  0
 14 16  2  0
  9  4  1  0
 16 10  1  0
M  END
>  <Energy>  (760) 
49.999544097894493

>  <Energy_Delta>  (760) 
2.2993966663760688

>  <std_smi>  (760) 
CC(Nc1cnccn1)c1cccc(Cl)c1

>  <enum_smi>  (760) 
C[C@H](Nc1cnccn1)c1cccc(Cl)c1

>  <enum_code>  (760) 
C

>  <parent_uuid>  (760) 
6620cc01-fc2b-4cc4-81f0-045e40704b17

>  <o3da_score>  (760) 
76.263501071223232

>  <o3da_score_rel>  (760) 
0.30361607853694195

>  <o3da_align>  (760) 
0.41712732066447333

>  <RMSD>  (760) 
0.3583153538219172

>  <CONVERGED>  (760) 
0

>  <ENERGY>  (760) 
51.355372638029415

$$$$
a99002c6-7715-45cd-8960-3fb75073e4ca
     RDKit          3D

 16 17  0  0  0  0  0  0  0  0999 V2000
   -5.8945   28.4384    5.1018 C   0  0  0  0  0  0  0  0  0  0  0  0
   -4.4425   28.1621    4.6886 C   0  0  2  0  0  0  0  0  0  0  0  0
   -4.2305   28.6847    3.3342 N   0  0  0  0  0  0  0  0  0  0  0  0
   -2.8932   28.9385    2.9757 C   0  0  0  0  0  0  0  0  0  0  0  0
   -2.6090   29.3939    1.6821 C   0  0  0  0  0  0  0  0  0  0  0  0
   -1.3600   29.6715    1.2278 N   0  0  0  0  0  0  0  0  0  0  0  0
   -0.3751   29.4525    2.1212 C   0  0  0  0  0  0  0  0  0  0  0  0
   -0.6319   28.9936    3.4001 C   0  0  0  0  0  0  0  0  0  0  0  0
   -1.8838   28.7372    3.8491 N   0  0  0  0  0  0  0  0  0  0  0  0
   -4.1725   26.6651    4.7399 C   0  0  0  0  0  0  0  0  0  0  0  0
   -3.3343   26.1364    5.7351 C   0  0  0  0  0  0  0  0  0  0  0  0
   -3.0860   24.7636    5.8057 C   0  0  0  0  0  0  0  0  0  0  0  0
   -3.6722   23.9002    4.8812 C   0  0  0  0  0  0  0  0  0  0  0  0
   -4.5015   24.4139    3.8870 C   0  0  0  0  0  0  0  0  0  0  0  0
   -5.2231   23.3488    2.7434 Cl  0  0  0  0  0  0  0  0  0  0  0  0
   -4.7535   25.7832    3.8124 C   0  0  0  0  0  0  0  0  0  0  0  0
  2  1  1  6
  2  3  1  0
  3  4  1  0
  4  5  2  0
  5  6  1  0
  6  7  2  0
  7  8  1  0
  8  9  2  0
  2 10  1  0
 10 11  2  0
 11 12  1  0
 12 13  2  0
 13 14  1  0
 14 15  1  0
 14 16  2  0
  9  4  1  0
 16 10  1  0
M  END
>  <Energy>  (761) 
50.129010513256176

>  <Energy_Delta>  (761) 
2.4288630817377523

>  <std_smi>  (761) 
CC(Nc1cnccn1)c1cccc(Cl)c1

>  <enum_smi>  (761) 
C[C@H](Nc1cnccn1)c1cccc(Cl)c1

>  <enum_code>  (761) 
C

>  <parent_uuid>  (761) 
6620cc01-fc2b-4cc4-81f0-045e40704b17

>  <o3da_score>  (761) 
76.612182606132961

>  <o3da_score_rel>  (761) 
0.3050042303894076

>  <o3da_align>  (761) 
0.4071552743112139

>  <RMSD>  (761) 
0.41215150201370732

>  <CONVERGED>  (761) 
0

>  <ENERGY>  (761) 
51.425997661412772

$$$$
a99002c6-7715-45cd-8960-3fb75073e4ca
     RDKit          3D

 16 17  0  0  0  0  0  0  0  0999 V2000
   -5.5751   28.7796    4.4442 C   0  0  0  0  0  0  0  0  0  0  0  0
   -4.3803   28.1129    5.1375 C   0  0  2  0  0  0  0  0  0  0  0  0
   -3.1631   28.9353    5.0405 N   0  0  0  0  0  0  0  0  0  0  0  0
   -2.7553   29.3767    3.7864 C   0  0  0  0  0  0  0  0  0  0  0  0
   -2.4023   28.5437    2.7240 C   0  0  0  0  0  0  0  0  0  0  0  0
   -2.0133   29.0022    1.5052 N   0  0  0  0  0  0  0  0  0  0  0  0
   -1.9638   30.3445    1.3925 C   0  0  0  0  0  0  0  0  0  0  0  0
   -2.2908   31.1820    2.4429 C   0  0  0  0  0  0  0  0  0  0  0  0
   -2.6906   30.7182    3.6510 N   0  0  0  0  0  0  0  0  0  0  0  0
   -4.1053   26.6572    4.7893 C   0  0  0  0  0  0  0  0  0  0  0  0
   -4.8061   25.9592    3.7921 C   0  0  0  0  0  0  0  0  0  0  0  0
   -4.5174   24.6188    3.5169 C   0  0  0  0  0  0  0  0  0  0  0  0
   -3.5274   23.9522    4.2362 C   0  0  0  0  0  0  0  0  0  0  0  0
   -2.8269   24.6284    5.2300 C   0  0  0  0  0  0  0  0  0  0  0  0
   -1.6040   23.8098    6.1214 Cl  0  0  0  0  0  0  0  0  0  0  0  0
   -3.1103   25.9654    5.5078 C   0  0  0  0  0  0  0  0  0  0  0  0
  2  1  1  6
  2  3  1  0
  3  4  1  0
  4  5  2  0
  5  6  1  0
  6  7  2  0
  7  8  1  0
  8  9  2  0
  2 10  1  0
 10 11  2  0
 11 12  1  0
 12 13  2  0
 13 14  1  0
 14 15  1  0
 14 16  2  0
  9  4  1  0
 16 10  1  0
M  END
>  <Energy>  (762) 
50.822916906843524

>  <Energy_Delta>  (762) 
3.1227694753251001

>  <std_smi>  (762) 
CC(Nc1cnccn1)c1cccc(Cl)c1

>  <enum_smi>  (762) 
C[C@H](Nc1cnccn1)c1cccc(Cl)c1

>  <enum_code>  (762) 
C

>  <parent_uuid>  (762) 
6620cc01-fc2b-4cc4-81f0-045e40704b17

>  <o3da_score>  (762) 
95.845821579133542

>  <o3da_score_rel>  (762) 
0.38157614170939846

>  <o3da_align>  (762) 
0.51777818201518722

>  <RMSD>  (762) 
5.8166315772922159e-05

>  <CONVERGED>  (762) 
0

>  <ENERGY>  (762) 
50.822916899031284

$$$$
a99002c6-7715-45cd-8960-3fb75073e4ca
     RDKit          3D

 16 17  0  0  0  0  0  0  0  0999 V2000
   -2.9700   28.9254    6.3311 C   0  0  0  0  0  0  0  0  0  0  0  0
   -3.6895   28.9705    4.9801 C   0  0  2  0  0  0  0  0  0  0  0  0
   -4.6699   27.8906    4.8091 N   0  0  0  0  0  0  0  0  0  0  0  0
   -4.2606   26.5516    4.7752 C   0  0  0  0  0  0  0  0  0  0  0  0
   -5.2193   25.5529    4.5550 C   0  0  0  0  0  0  0  0  0  0  0  0
   -4.9490   24.2224    4.5155 N   0  0  0  0  0  0  0  0  0  0  0  0
   -3.6572   23.9060    4.7278 C   0  0  0  0  0  0  0  0  0  0  0  0
   -2.6973   24.8706    4.9687 C   0  0  0  0  0  0  0  0  0  0  0  0
   -2.9819   26.1948    5.0032 N   0  0  0  0  0  0  0  0  0  0  0  0
   -2.8277   29.1575    3.7401 C   0  0  0  0  0  0  0  0  0  0  0  0
   -3.3578   29.8362    2.6262 C   0  0  0  0  0  0  0  0  0  0  0  0
   -2.6013   30.0177    1.4658 C   0  0  0  0  0  0  0  0  0  0  0  0
   -1.3028   29.5181    1.3965 C   0  0  0  0  0  0  0  0  0  0  0  0
   -0.7683   28.8377    2.4874 C   0  0  0  0  0  0  0  0  0  0  0  0
    0.8324   28.2101    2.3989 Cl  0  0  0  0  0  0  0  0  0  0  0  0
   -1.5192   28.6577    3.6499 C   0  0  0  0  0  0  0  0  0  0  0  0
  2  1  1  1
  2  3  1  0
  3  4  1  0
  4  5  2  0
  5  6  1  0
  6  7  2  0
  7  8  1  0
  8  9  2  0
  2 10  1  0
 10 11  2  0
 11 12  1  0
 12 13  2  0
 13 14  1  0
 14 15  1  0
 14 16  2  0
  9  4  1  0
 16 10  1  0
M  END
>  <Energy>  (763) 
54.463887769931453

>  <Energy_Delta>  (763) 
6.7637403384130295

>  <std_smi>  (763) 
CC(Nc1cnccn1)c1cccc(Cl)c1

>  <enum_smi>  (763) 
C[C@H](Nc1cnccn1)c1cccc(Cl)c1

>  <enum_code>  (763) 
C

>  <parent_uuid>  (763) 
6620cc01-fc2b-4cc4-81f0-045e40704b17

>  <o3da_score>  (763) 
75.96256750012148

>  <o3da_score_rel>  (763) 
0.30241801826597825

>  <o3da_align>  (763) 
0.33713826220669668

>  <RMSD>  (763) 
6.7109642200967058e-05

>  <CONVERGED>  (763) 
0

>  <ENERGY>  (763) 
54.463887747391048

$$$$
a99002c6-7715-45cd-8960-3fb75073e4ca
     RDKit          3D

 16 17  0  0  0  0  0  0  0  0999 V2000
   -2.7506   28.9659    6.0435 C   0  0  0  0  0  0  0  0  0  0  0  0
   -3.7186   28.9843    4.8572 C   0  0  2  0  0  0  0  0  0  0  0  0
   -4.6936   27.8870    4.8870 N   0  0  0  0  0  0  0  0  0  0  0  0
   -4.2767   26.5537    4.7911 C   0  0  0  0  0  0  0  0  0  0  0  0
   -5.2446   25.5397    4.7680 C   0  0  0  0  0  0  0  0  0  0  0  0
   -4.9667   24.2120    4.6992 N   0  0  0  0  0  0  0  0  0  0  0  0
   -3.6537   23.9148    4.6731 C   0  0  0  0  0  0  0  0  0  0  0  0
   -2.6803   24.8949    4.7160 C   0  0  0  0  0  0  0  0  0  0  0  0
   -2.9723   26.2164    4.7814 N   0  0  0  0  0  0  0  0  0  0  0  0
   -3.1172   29.1732    3.4725 C   0  0  0  0  0  0  0  0  0  0  0  0
   -1.8350   28.7133    3.1351 C   0  0  0  0  0  0  0  0  0  0  0  0
   -1.3183   28.8985    1.8494 C   0  0  0  0  0  0  0  0  0  0  0  0
   -2.0779   29.5448    0.8767 C   0  0  0  0  0  0  0  0  0  0  0  0
   -3.3540   29.9999    1.1935 C   0  0  0  0  0  0  0  0  0  0  0  0
   -4.3004   30.7942   -0.0046 Cl  0  0  0  0  0  0  0  0  0  0  0  0
   -3.8741   29.8173    2.4757 C   0  0  0  0  0  0  0  0  0  0  0  0
  2  1  1  1
  2  3  1  0
  3  4  1  0
  4  5  2  0
  5  6  1  0
  6  7  2  0
  7  8  1  0
  8  9  2  0
  2 10  1  0
 10 11  2  0
 11 12  1  0
 12 13  2  0
 13 14  1  0
 14 15  1  0
 14 16  2  0
  9  4  1  0
 16 10  1  0
M  END
>  <Energy>  (764) 
54.687175105046599

>  <Energy_Delta>  (764) 
6.9870276735281749

>  <std_smi>  (764) 
CC(Nc1cnccn1)c1cccc(Cl)c1

>  <enum_smi>  (764) 
C[C@H](Nc1cnccn1)c1cccc(Cl)c1

>  <enum_code>  (764) 
C

>  <parent_uuid>  (764) 
6620cc01-fc2b-4cc4-81f0-045e40704b17

>  <o3da_score>  (764) 
79.033499606569748

>  <o3da_score_rel>  (764) 
0.31464384517552768

>  <o3da_align>  (764) 
0.4512102703088115

>  <RMSD>  (764) 
8.4886389653886604e-05

>  <CONVERGED>  (764) 
0

>  <ENERGY>  (764) 
54.687174915956405

$$$$
34268c35-407c-4dc4-be03-71002a19d8a1
     RDKit          3D

 16 17  0  0  0  0  0  0  0  0999 V2000
   -4.2090   30.2801    5.2387 C   0  0  0  0  0  0  0  0  0  0  0  0
   -3.6723   28.9370    4.7318 C   0  0  1  0  0  0  0  0  0  0  0  0
   -4.6512   27.8973    5.0521 N   0  0  0  0  0  0  0  0  0  0  0  0
   -4.2609   26.5738    4.8767 C   0  0  0  0  0  0  0  0  0  0  0  0
   -3.0980   26.0193    5.4154 C   0  0  0  0  0  0  0  0  0  0  0  0
   -2.7261   24.7256    5.2380 N   0  0  0  0  0  0  0  0  0  0  0  0
   -3.5855   23.9869    4.5066 C   0  0  0  0  0  0  0  0  0  0  0  0
   -4.7528   24.5160    3.9859 C   0  0  0  0  0  0  0  0  0  0  0  0
   -5.1131   25.8091    4.1641 N   0  0  0  0  0  0  0  0  0  0  0  0
   -3.3736   28.9811    3.2406 C   0  0  0  0  0  0  0  0  0  0  0  0
   -2.0854   28.6625    2.7772 C   0  0  0  0  0  0  0  0  0  0  0  0
   -1.7890   28.6844    1.4122 C   0  0  0  0  0  0  0  0  0  0  0  0
   -2.7766   29.0220    0.4889 C   0  0  0  0  0  0  0  0  0  0  0  0
   -4.0584   29.3328    0.9346 C   0  0  0  0  0  0  0  0  0  0  0  0
   -5.2810   29.7454   -0.2045 Cl  0  0  0  0  0  0  0  0  0  0  0  0
   -4.3609   29.3131    2.2967 C   0  0  0  0  0  0  0  0  0  0  0  0
  2  1  1  6
  2  3  1  0
  3  4  1  0
  4  5  2  0
  5  6  1  0
  6  7  2  0
  7  8  1  0
  8  9  2  0
  2 10  1  0
 10 11  2  0
 11 12  1  0
 12 13  2  0
 13 14  1  0
 14 15  1  0
 14 16  2  0
  9  4  1  0
 16 10  1  0
M  END
>  <Energy>  (765) 
48.258127506652123

>  <Energy_Delta>  (765) 
0

>  <std_smi>  (765) 
CC(Nc1cnccn1)c1cccc(Cl)c1

>  <enum_smi>  (765) 
C[C@@H](Nc1cnccn1)c1cccc(Cl)c1

>  <enum_code>  (765) 
C

>  <parent_uuid>  (765) 
6620cc01-fc2b-4cc4-81f0-045e40704b17

>  <o3da_score>  (765) 
82.399449430563081

>  <o3da_score_rel>  (765) 
0.32804418048348255

>  <o3da_align>  (765) 
0.30733293249706384

>  <RMSD>  (765) 
6.1594183667031813e-05

>  <CONVERGED>  (765) 
0

>  <ENERGY>  (765) 
48.258127481641928

$$$$
34268c35-407c-4dc4-be03-71002a19d8a1
     RDKit          3D

 16 17  0  0  0  0  0  0  0  0999 V2000
   -4.4720   28.4626    6.8046 C   0  0  0  0  0  0  0  0  0  0  0  0
   -4.4318   28.0940    5.3173 C   0  0  1  0  0  0  0  0  0  0  0  0
   -3.4216   28.9278    4.6631 N   0  0  0  0  0  0  0  0  0  0  0  0
   -3.4425   28.9690    3.2717 C   0  0  0  0  0  0  0  0  0  0  0  0
   -4.5680   29.3028    2.5154 C   0  0  0  0  0  0  0  0  0  0  0  0
   -4.5812   29.3390    1.1585 N   0  0  0  0  0  0  0  0  0  0  0  0
   -3.4019   29.0442    0.5745 C   0  0  0  0  0  0  0  0  0  0  0  0
   -2.2723   28.7353    1.3111 C   0  0  0  0  0  0  0  0  0  0  0  0
   -2.2691   28.6977    2.6649 N   0  0  0  0  0  0  0  0  0  0  0  0
   -4.1421   26.6151    5.1058 C   0  0  0  0  0  0  0  0  0  0  0  0
   -3.0250   25.9853    5.6817 C   0  0  0  0  0  0  0  0  0  0  0  0
   -2.7729   24.6292    5.4588 C   0  0  0  0  0  0  0  0  0  0  0  0
   -3.6296   23.8829    4.6519 C   0  0  0  0  0  0  0  0  0  0  0  0
   -4.7335   24.4973    4.0672 C   0  0  0  0  0  0  0  0  0  0  0  0
   -5.7891   23.5798    3.0643 Cl  0  0  0  0  0  0  0  0  0  0  0  0
   -4.9915   25.8510    4.2871 C   0  0  0  0  0  0  0  0  0  0  0  0
  2  1  1  1
  2  3  1  0
  3  4  1  0
  4  5  2  0
  5  6  1  0
  6  7  2  0
  7  8  1  0
  8  9  2  0
  2 10  1  0
 10 11  2  0
 11 12  1  0
 12 13  2  0
 13 14  1  0
 14 15  1  0
 14 16  2  0
  9  4  1  0
 16 10  1  0
M  END
>  <Energy>  (766) 
48.310098729702062

>  <Energy_Delta>  (766) 
0.051971223049939397

>  <std_smi>  (766) 
CC(Nc1cnccn1)c1cccc(Cl)c1

>  <enum_smi>  (766) 
C[C@@H](Nc1cnccn1)c1cccc(Cl)c1

>  <enum_code>  (766) 
C

>  <parent_uuid>  (766) 
6620cc01-fc2b-4cc4-81f0-045e40704b17

>  <o3da_score>  (766) 
75.870525097344455

>  <o3da_score_rel>  (766) 
0.30205158408714111

>  <o3da_align>  (766) 
0.43024462920123513

>  <RMSD>  (766) 
6.9770743900304493e-05

>  <CONVERGED>  (766) 
0

>  <ENERGY>  (766) 
48.310098713296789

$$$$
34268c35-407c-4dc4-be03-71002a19d8a1
     RDKit          3D

 16 17  0  0  0  0  0  0  0  0999 V2000
   -2.7699   29.4471    6.0794 C   0  0  0  0  0  0  0  0  0  0  0  0
   -3.4832   28.9339    4.8226 C   0  0  1  0  0  0  0  0  0  0  0  0
   -2.7446   29.2768    3.6074 N   0  0  0  0  0  0  0  0  0  0  0  0
   -2.6664   30.6226    3.2705 C   0  0  0  0  0  0  0  0  0  0  0  0
   -3.7773   31.4533    3.1103 C   0  0  0  0  0  0  0  0  0  0  0  0
   -3.6939   32.7685    2.7848 N   0  0  0  0  0  0  0  0  0  0  0  0
   -2.4391   33.2263    2.5978 C   0  0  0  0  0  0  0  0  0  0  0  0
   -1.3302   32.4106    2.7350 C   0  0  0  0  0  0  0  0  0  0  0  0
   -1.4218   31.1020    3.0726 N   0  0  0  0  0  0  0  0  0  0  0  0
   -3.6686   27.4225    4.8415 C   0  0  0  0  0  0  0  0  0  0  0  0
   -4.9210   26.8712    4.5181 C   0  0  0  0  0  0  0  0  0  0  0  0
   -5.1176   25.4879    4.5144 C   0  0  0  0  0  0  0  0  0  0  0  0
   -4.0625   24.6326    4.8251 C   0  0  0  0  0  0  0  0  0  0  0  0
   -2.8130   25.1647    5.1316 C   0  0  0  0  0  0  0  0  0  0  0  0
   -1.5050   24.1098    5.5051 Cl  0  0  0  0  0  0  0  0  0  0  0  0
   -2.6104   26.5457    5.1373 C   0  0  0  0  0  0  0  0  0  0  0  0
  2  1  1  1
  2  3  1  0
  3  4  1  0
  4  5  2  0
  5  6  1  0
  6  7  2  0
  7  8  1  0
  8  9  2  0
  2 10  1  0
 10 11  2  0
 11 12  1  0
 12 13  2  0
 13 14  1  0
 14 15  1  0
 14 16  2  0
  9  4  1  0
 16 10  1  0
M  END
>  <Energy>  (767) 
48.538259983048086

>  <Energy_Delta>  (767) 
0.28013247639596273

>  <std_smi>  (767) 
CC(Nc1cnccn1)c1cccc(Cl)c1

>  <enum_smi>  (767) 
C[C@@H](Nc1cnccn1)c1cccc(Cl)c1

>  <enum_code>  (767) 
C

>  <parent_uuid>  (767) 
6620cc01-fc2b-4cc4-81f0-045e40704b17

>  <o3da_score>  (767) 
73.330527262021405

>  <o3da_score_rel>  (767) 
0.29193948365350264

>  <o3da_align>  (767) 
0.55843693034151909

>  <RMSD>  (767) 
6.2123482517770193e-05

>  <CONVERGED>  (767) 
0

>  <ENERGY>  (767) 
48.538259971078688

$$$$
34268c35-407c-4dc4-be03-71002a19d8a1
     RDKit          3D

 16 17  0  0  0  0  0  0  0  0999 V2000
   -4.3112   30.5189    3.0806 C   0  0  0  0  0  0  0  0  0  0  0  0
   -3.1599   29.5630    3.4166 C   0  0  1  0  0  0  0  0  0  0  0  0
   -1.9118   30.2873    3.6550 N   0  0  0  0  0  0  0  0  0  0  0  0
   -1.3425   30.9485    2.5739 C   0  0  0  0  0  0  0  0  0  0  0  0
   -1.0287   30.3342    1.3599 C   0  0  0  0  0  0  0  0  0  0  0  0
   -0.4762   30.9873    0.3059 N   0  0  0  0  0  0  0  0  0  0  0  0
   -0.2211   32.2941    0.5208 C   0  0  0  0  0  0  0  0  0  0  0  0
   -0.5096   32.9117    1.7246 C   0  0  0  0  0  0  0  0  0  0  0  0
   -1.0732   32.2557    2.7671 N   0  0  0  0  0  0  0  0  0  0  0  0
   -3.4469   28.7205    4.6523 C   0  0  0  0  0  0  0  0  0  0  0  0
   -3.9467   29.2803    5.8411 C   0  0  0  0  0  0  0  0  0  0  0  0
   -4.1850   28.4832    6.9642 C   0  0  0  0  0  0  0  0  0  0  0  0
   -3.9182   27.1162    6.9203 C   0  0  0  0  0  0  0  0  0  0  0  0
   -3.4069   26.5522    5.7549 C   0  0  0  0  0  0  0  0  0  0  0  0
   -3.0667   24.8659    5.7006 Cl  0  0  0  0  0  0  0  0  0  0  0  0
   -3.1674   27.3427    4.6302 C   0  0  0  0  0  0  0  0  0  0  0  0
  2  1  1  1
  2  3  1  0
  3  4  1  0
  4  5  2  0
  5  6  1  0
  6  7  2  0
  7  8  1  0
  8  9  2  0
  2 10  1  0
 10 11  2  0
 11 12  1  0
 12 13  2  0
 13 14  1  0
 14 15  1  0
 14 16  2  0
  9  4  1  0
 16 10  1  0
M  END
>  <Energy>  (768) 
48.545367232154277

>  <Energy_Delta>  (768) 
0.28723972550215393

>  <std_smi>  (768) 
CC(Nc1cnccn1)c1cccc(Cl)c1

>  <enum_smi>  (768) 
C[C@@H](Nc1cnccn1)c1cccc(Cl)c1

>  <enum_code>  (768) 
C

>  <parent_uuid>  (768) 
6620cc01-fc2b-4cc4-81f0-045e40704b17

>  <o3da_score>  (768) 
73.649982587920292

>  <o3da_score_rel>  (768) 
0.29321128172144839

>  <o3da_align>  (768) 
0.46012113614093564

>  <RMSD>  (768) 
7.0293463621410752e-05

>  <CONVERGED>  (768) 
0

>  <ENERGY>  (768) 
48.545367220376136

$$$$
34268c35-407c-4dc4-be03-71002a19d8a1
     RDKit          3D

 16 17  0  0  0  0  0  0  0  0999 V2000
   -3.0608   29.4605    6.0188 C   0  0  0  0  0  0  0  0  0  0  0  0
   -3.3673   28.7280    4.7089 C   0  0  1  0  0  0  0  0  0  0  0  0
   -4.5306   27.8555    4.8946 N   0  0  0  0  0  0  0  0  0  0  0  0
   -4.2598   26.4872    4.8936 C   0  0  0  0  0  0  0  0  0  0  0  0
   -3.3732   25.8641    5.7741 C   0  0  0  0  0  0  0  0  0  0  0  0
   -3.1163   24.5311    5.7660 N   0  0  0  0  0  0  0  0  0  0  0  0
   -3.8067   23.8270    4.8458 C   0  0  0  0  0  0  0  0  0  0  0  0
   -4.7020   24.4283    3.9796 C   0  0  0  0  0  0  0  0  0  0  0  0
   -4.9442   25.7609    3.9871 N   0  0  0  0  0  0  0  0  0  0  0  0
   -3.6561   29.7093    3.5796 C   0  0  0  0  0  0  0  0  0  0  0  0
   -4.6759   30.6721    3.6811 C   0  0  0  0  0  0  0  0  0  0  0  0
   -4.9344   31.5548    2.6301 C   0  0  0  0  0  0  0  0  0  0  0  0
   -4.1819   31.4846    1.4591 C   0  0  0  0  0  0  0  0  0  0  0  0
   -3.1770   30.5277    1.3422 C   0  0  0  0  0  0  0  0  0  0  0  0
   -2.2518   30.4345   -0.1061 Cl  0  0  0  0  0  0  0  0  0  0  0  0
   -2.9140   29.6426    2.3887 C   0  0  0  0  0  0  0  0  0  0  0  0
  2  1  1  1
  2  3  1  0
  3  4  1  0
  4  5  2  0
  5  6  1  0
  6  7  2  0
  7  8  1  0
  8  9  2  0
  2 10  1  0
 10 11  2  0
 11 12  1  0
 12 13  2  0
 13 14  1  0
 14 15  1  0
 14 16  2  0
  9  4  1  0
 16 10  1  0
M  END
>  <Energy>  (769) 
48.572181446489232

>  <Energy_Delta>  (769) 
0.31405393983710894

>  <std_smi>  (769) 
CC(Nc1cnccn1)c1cccc(Cl)c1

>  <enum_smi>  (769) 
C[C@@H](Nc1cnccn1)c1cccc(Cl)c1

>  <enum_code>  (769) 
C

>  <parent_uuid>  (769) 
6620cc01-fc2b-4cc4-81f0-045e40704b17

>  <o3da_score>  (769) 
70.52744580806899

>  <o3da_score_rel>  (769) 
0.28078000910913509

>  <o3da_align>  (769) 
0.58910001303372339

>  <RMSD>  (769) 
6.4820921278189241e-05

>  <CONVERGED>  (769) 
0

>  <ENERGY>  (769) 
48.572181445333612

$$$$
34268c35-407c-4dc4-be03-71002a19d8a1
     RDKit          3D

 16 17  0  0  0  0  0  0  0  0999 V2000
   -3.0192   29.5212    5.9386 C   0  0  0  0  0  0  0  0  0  0  0  0
   -3.4797   28.8221    4.6556 C   0  0  1  0  0  0  0  0  0  0  0  0
   -4.5679   27.8908    4.9666 N   0  0  0  0  0  0  0  0  0  0  0  0
   -4.2444   26.5371    4.8762 C   0  0  0  0  0  0  0  0  0  0  0  0
   -3.2169   25.9278    5.5992 C   0  0  0  0  0  0  0  0  0  0  0  0
   -2.9098   24.6086    5.5055 N   0  0  0  0  0  0  0  0  0  0  0  0
   -3.6964   23.9025    4.6678 C   0  0  0  0  0  0  0  0  0  0  0  0
   -4.7293   24.4891    3.9592 C   0  0  0  0  0  0  0  0  0  0  0  0
   -5.0204   25.8088    4.0486 N   0  0  0  0  0  0  0  0  0  0  0  0
   -3.9658   29.8269    3.6186 C   0  0  0  0  0  0  0  0  0  0  0  0
   -3.4110   29.8251    2.3279 C   0  0  0  0  0  0  0  0  0  0  0  0
   -3.8511   30.7302    1.3589 C   0  0  0  0  0  0  0  0  0  0  0  0
   -4.8570   31.6457    1.6638 C   0  0  0  0  0  0  0  0  0  0  0  0
   -5.4236   31.6489    2.9357 C   0  0  0  0  0  0  0  0  0  0  0  0
   -6.6730   32.7714    3.3104 Cl  0  0  0  0  0  0  0  0  0  0  0  0
   -4.9887   30.7474    3.9076 C   0  0  0  0  0  0  0  0  0  0  0  0
  2  1  1  1
  2  3  1  0
  3  4  1  0
  4  5  2  0
  5  6  1  0
  6  7  2  0
  7  8  1  0
  8  9  2  0
  2 10  1  0
 10 11  2  0
 11 12  1  0
 12 13  2  0
 13 14  1  0
 14 15  1  0
 14 16  2  0
  9  4  1  0
 16 10  1  0
M  END
>  <Energy>  (770) 
48.635524422953303

>  <Energy_Delta>  (770) 
0.37739691630117989

>  <std_smi>  (770) 
CC(Nc1cnccn1)c1cccc(Cl)c1

>  <enum_smi>  (770) 
C[C@@H](Nc1cnccn1)c1cccc(Cl)c1

>  <enum_code>  (770) 
C

>  <parent_uuid>  (770) 
6620cc01-fc2b-4cc4-81f0-045e40704b17

>  <o3da_score>  (770) 
68.88270375457428

>  <o3da_score_rel>  (770) 
0.27423205201993073

>  <o3da_align>  (770) 
0.40357853774026547

>  <RMSD>  (770) 
6.5283169136523558e-05

>  <CONVERGED>  (770) 
0

>  <ENERGY>  (770) 
48.635524420820097

$$$$
34268c35-407c-4dc4-be03-71002a19d8a1
     RDKit          3D

 16 17  0  0  0  0  0  0  0  0999 V2000
   -3.9146   28.9942    6.5253 C   0  0  0  0  0  0  0  0  0  0  0  0
   -3.4525   28.7964    5.0761 C   0  0  1  0  0  0  0  0  0  0  0  0
   -4.3127   27.8442    4.3733 N   0  0  0  0  0  0  0  0  0  0  0  0
   -4.1270   26.4860    4.6507 C   0  0  0  0  0  0  0  0  0  0  0  0
   -4.9548   25.5365    4.0395 C   0  0  0  0  0  0  0  0  0  0  0  0
   -4.8404   24.1953    4.2184 N   0  0  0  0  0  0  0  0  0  0  0  0
   -3.8310   23.8192    5.0279 C   0  0  0  0  0  0  0  0  0  0  0  0
   -2.9871   24.7380    5.6240 C   0  0  0  0  0  0  0  0  0  0  0  0
   -3.1157   26.0748    5.4450 N   0  0  0  0  0  0  0  0  0  0  0  0
   -3.4597   30.0852    4.2592 C   0  0  0  0  0  0  0  0  0  0  0  0
   -2.4960   30.2530    3.2473 C   0  0  0  0  0  0  0  0  0  0  0  0
   -2.4726   31.4040    2.4565 C   0  0  0  0  0  0  0  0  0  0  0  0
   -3.4210   32.4043    2.6561 C   0  0  0  0  0  0  0  0  0  0  0  0
   -4.3921   32.2439    3.6408 C   0  0  0  0  0  0  0  0  0  0  0  0
   -5.5752   33.4718    3.8792 Cl  0  0  0  0  0  0  0  0  0  0  0  0
   -4.4201   31.0951    4.4348 C   0  0  0  0  0  0  0  0  0  0  0  0
  2  1  1  1
  2  3  1  0
  3  4  1  0
  4  5  2  0
  5  6  1  0
  6  7  2  0
  7  8  1  0
  8  9  2  0
  2 10  1  0
 10 11  2  0
 11 12  1  0
 12 13  2  0
 13 14  1  0
 14 15  1  0
 14 16  2  0
  9  4  1  0
 16 10  1  0
M  END
>  <Energy>  (771) 
48.943222790320547

>  <Energy_Delta>  (771) 
0.68509528366842432

>  <std_smi>  (771) 
CC(Nc1cnccn1)c1cccc(Cl)c1

>  <enum_smi>  (771) 
C[C@@H](Nc1cnccn1)c1cccc(Cl)c1

>  <enum_code>  (771) 
C

>  <parent_uuid>  (771) 
6620cc01-fc2b-4cc4-81f0-045e40704b17

>  <o3da_score>  (771) 
77.775903035696643

>  <o3da_score_rel>  (771) 
0.30963717050328304

>  <o3da_align>  (771) 
0.48972421212256667

>  <RMSD>  (771) 
0.32338756928114687

>  <CONVERGED>  (771) 
0

>  <ENERGY>  (771) 
50.160085354352681

$$$$
34268c35-407c-4dc4-be03-71002a19d8a1
     RDKit          3D

 16 17  0  0  0  0  0  0  0  0999 V2000
   -3.9720   28.6795    6.5711 C   0  0  0  0  0  0  0  0  0  0  0  0
   -4.1423   28.0670    5.1751 C   0  0  1  0  0  0  0  0  0  0  0  0
   -3.0825   28.5216    4.2738 N   0  0  0  0  0  0  0  0  0  0  0  0
   -3.1909   29.8155    3.7548 C   0  0  0  0  0  0  0  0  0  0  0  0
   -2.1803   30.3142    2.9241 C   0  0  0  0  0  0  0  0  0  0  0  0
   -2.2028   31.5431    2.3469 N   0  0  0  0  0  0  0  0  0  0  0  0
   -3.3078   32.2683    2.6094 C   0  0  0  0  0  0  0  0  0  0  0  0
   -4.3286   31.7872    3.4082 C   0  0  0  0  0  0  0  0  0  0  0  0
   -4.2909   30.5629    3.9873 N   0  0  0  0  0  0  0  0  0  0  0  0
   -4.1066   26.5410    5.1587 C   0  0  0  0  0  0  0  0  0  0  0  0
   -3.4553   25.7707    6.1361 C   0  0  0  0  0  0  0  0  0  0  0  0
   -3.4404   24.3746    6.0559 C   0  0  0  0  0  0  0  0  0  0  0  0
   -4.0665   23.7265    4.9927 C   0  0  0  0  0  0  0  0  0  0  0  0
   -4.7019   24.4771    4.0082 C   0  0  0  0  0  0  0  0  0  0  0  0
   -5.4662   23.6813    2.6877 Cl  0  0  0  0  0  0  0  0  0  0  0  0
   -4.7210   25.8695    4.0841 C   0  0  0  0  0  0  0  0  0  0  0  0
  2  1  1  1
  2  3  1  0
  3  4  1  0
  4  5  2  0
  5  6  1  0
  6  7  2  0
  7  8  1  0
  8  9  2  0
  2 10  1  0
 10 11  2  0
 11 12  1  0
 12 13  2  0
 13 14  1  0
 14 15  1  0
 14 16  2  0
  9  4  1  0
 16 10  1  0
M  END
>  <Energy>  (772) 
48.974450458544275

>  <Energy_Delta>  (772) 
0.71632295189215256

>  <std_smi>  (772) 
CC(Nc1cnccn1)c1cccc(Cl)c1

>  <enum_smi>  (772) 
C[C@@H](Nc1cnccn1)c1cccc(Cl)c1

>  <enum_code>  (772) 
C

>  <parent_uuid>  (772) 
6620cc01-fc2b-4cc4-81f0-045e40704b17

>  <o3da_score>  (772) 
74.724599807050907

>  <o3da_score_rel>  (772) 
0.2974894890082605

>  <o3da_align>  (772) 
0.49524164381098684

>  <RMSD>  (772) 
0.43713719386626521

>  <CONVERGED>  (772) 
0

>  <ENERGY>  (772) 
50.248059028558139

$$$$
34268c35-407c-4dc4-be03-71002a19d8a1
     RDKit          3D

 16 17  0  0  0  0  0  0  0  0999 V2000
   -6.2329   27.9013    4.8644 C   0  0  0  0  0  0  0  0  0  0  0  0
   -4.7743   27.9173    4.3877 C   0  0  1  0  0  0  0  0  0  0  0  0
   -4.3055   29.3074    4.3502 N   0  0  0  0  0  0  0  0  0  0  0  0
   -3.1864   29.5543    3.5322 C   0  0  0  0  0  0  0  0  0  0  0  0
   -2.6510   30.8473    3.4811 C   0  0  0  0  0  0  0  0  0  0  0  0
   -1.5762   31.1992    2.7299 N   0  0  0  0  0  0  0  0  0  0  0  0
   -1.0243   30.1885    2.0296 C   0  0  0  0  0  0  0  0  0  0  0  0
   -1.5307   28.9025    2.0722 C   0  0  0  0  0  0  0  0  0  0  0  0
   -2.6149   28.5666    2.8113 N   0  0  0  0  0  0  0  0  0  0  0  0
   -3.9154   27.0825    5.3269 C   0  0  0  0  0  0  0  0  0  0  0  0
   -3.6759   27.4789    6.6542 C   0  0  0  0  0  0  0  0  0  0  0  0
   -2.8915   26.6967    7.5047 C   0  0  0  0  0  0  0  0  0  0  0  0
   -2.3325   25.5077    7.0393 C   0  0  0  0  0  0  0  0  0  0  0  0
   -2.5571   25.1086    5.7238 C   0  0  0  0  0  0  0  0  0  0  0  0
   -1.8607   23.6440    5.1460 Cl  0  0  0  0  0  0  0  0  0  0  0  0
   -3.3416   25.8847    4.8706 C   0  0  0  0  0  0  0  0  0  0  0  0
  2  1  1  1
  2  3  1  0
  3  4  1  0
  4  5  2  0
  5  6  1  0
  6  7  2  0
  7  8  1  0
  8  9  2  0
  2 10  1  0
 10 11  2  0
 11 12  1  0
 12 13  2  0
 13 14  1  0
 14 15  1  0
 14 16  2  0
  9  4  1  0
 16 10  1  0
M  END
>  <Energy>  (773) 
49.999544119454221

>  <Energy_Delta>  (773) 
1.741416612802098

>  <std_smi>  (773) 
CC(Nc1cnccn1)c1cccc(Cl)c1

>  <enum_smi>  (773) 
C[C@@H](Nc1cnccn1)c1cccc(Cl)c1

>  <enum_code>  (773) 
C

>  <parent_uuid>  (773) 
6620cc01-fc2b-4cc4-81f0-045e40704b17

>  <o3da_score>  (773) 
82.529006540615811

>  <o3da_score_rel>  (773) 
0.3285599661627166

>  <o3da_align>  (773) 
0.53121899757339819

>  <RMSD>  (773) 
0.35831669884267436

>  <CONVERGED>  (773) 
0

>  <ENERGY>  (773) 
51.355372637076435

$$$$
34268c35-407c-4dc4-be03-71002a19d8a1
     RDKit          3D

 16 17  0  0  0  0  0  0  0  0999 V2000
   -4.1790   30.0776    5.7613 C   0  0  0  0  0  0  0  0  0  0  0  0
   -3.6059   28.9008    4.9607 C   0  0  1  0  0  0  0  0  0  0  0  0
   -4.6664   27.9030    4.8016 N   0  0  0  0  0  0  0  0  0  0  0  0
   -4.2687   26.5579    4.7451 C   0  0  0  0  0  0  0  0  0  0  0  0
   -5.2302   25.5697    4.4971 C   0  0  0  0  0  0  0  0  0  0  0  0
   -4.9660   24.2384    4.4535 N   0  0  0  0  0  0  0  0  0  0  0  0
   -3.6813   23.9119    4.6942 C   0  0  0  0  0  0  0  0  0  0  0  0
   -2.7194   24.8678    4.9636 C   0  0  0  0  0  0  0  0  0  0  0  0
   -2.9932   26.1943    4.9990 N   0  0  0  0  0  0  0  0  0  0  0  0
   -3.0824   29.3252    3.5944 C   0  0  0  0  0  0  0  0  0  0  0  0
   -1.8499   28.8228    3.1423 C   0  0  0  0  0  0  0  0  0  0  0  0
   -1.3452   29.1737    1.8881 C   0  0  0  0  0  0  0  0  0  0  0  0
   -2.0697   30.0283    1.0602 C   0  0  0  0  0  0  0  0  0  0  0  0
   -3.2984   30.5227    1.4892 C   0  0  0  0  0  0  0  0  0  0  0  0
   -4.2025   31.5683    0.4633 Cl  0  0  0  0  0  0  0  0  0  0  0  0
   -3.8077   30.1750    2.7419 C   0  0  0  0  0  0  0  0  0  0  0  0
  2  1  1  6
  2  3  1  0
  3  4  1  0
  4  5  2  0
  5  6  1  0
  6  7  2  0
  7  8  1  0
  8  9  2  0
  2 10  1  0
 10 11  2  0
 11 12  1  0
 12 13  2  0
 13 14  1  0
 14 15  1  0
 14 16  2  0
  9  4  1  0
 16 10  1  0
M  END
>  <Energy>  (774) 
50.12901038203487

>  <Energy_Delta>  (774) 
1.8708828753827476

>  <std_smi>  (774) 
CC(Nc1cnccn1)c1cccc(Cl)c1

>  <enum_smi>  (774) 
C[C@@H](Nc1cnccn1)c1cccc(Cl)c1

>  <enum_code>  (774) 
C

>  <parent_uuid>  (774) 
6620cc01-fc2b-4cc4-81f0-045e40704b17

>  <o3da_score>  (774) 
85.414754833191409

>  <o3da_score_rel>  (774) 
0.340048549402794

>  <o3da_align>  (774) 
0.44058043969167243

>  <RMSD>  (774) 
7.2577999001028934e-05

>  <CONVERGED>  (774) 
0

>  <ENERGY>  (774) 
50.129010347409618

$$$$
34268c35-407c-4dc4-be03-71002a19d8a1
     RDKit          3D

 16 17  0  0  0  0  0  0  0  0999 V2000
   -3.2640   28.9308    6.1077 C   0  0  0  0  0  0  0  0  0  0  0  0
   -4.2692   28.1576    5.2450 C   0  0  1  0  0  0  0  0  0  0  0  0
   -4.5659   28.8623    3.9869 N   0  0  0  0  0  0  0  0  0  0  0  0
   -3.5056   29.2596    3.1796 C   0  0  0  0  0  0  0  0  0  0  0  0
   -2.5792   28.3940    2.5972 C   0  0  0  0  0  0  0  0  0  0  0  0
   -1.5472   28.8102    1.8169 N   0  0  0  0  0  0  0  0  0  0  0  0
   -1.4888   30.1415    1.6149 C   0  0  0  0  0  0  0  0  0  0  0  0
   -2.4118   31.0093    2.1686 C   0  0  0  0  0  0  0  0  0  0  0  0
   -3.4302   30.5889    2.9564 N   0  0  0  0  0  0  0  0  0  0  0  0
   -3.9838   26.6815    5.0095 C   0  0  0  0  0  0  0  0  0  0  0  0
   -2.8040   26.0489    5.4342 C   0  0  0  0  0  0  0  0  0  0  0  0
   -2.5951   24.6864    5.1976 C   0  0  0  0  0  0  0  0  0  0  0  0
   -3.5632   23.9326    4.5369 C   0  0  0  0  0  0  0  0  0  0  0  0
   -4.7391   24.5435    4.1133 C   0  0  0  0  0  0  0  0  0  0  0  0
   -5.9377   23.6171    3.2977 Cl  0  0  0  0  0  0  0  0  0  0  0  0
   -4.9519   25.9020    4.3461 C   0  0  0  0  0  0  0  0  0  0  0  0
  2  1  1  6
  2  3  1  0
  3  4  1  0
  4  5  2  0
  5  6  1  0
  6  7  2  0
  7  8  1  0
  8  9  2  0
  2 10  1  0
 10 11  2  0
 11 12  1  0
 12 13  2  0
 13 14  1  0
 14 15  1  0
 14 16  2  0
  9  4  1  0
 16 10  1  0
M  END
>  <Energy>  (775) 
50.822916936677217

>  <Energy_Delta>  (775) 
2.564789430025094

>  <std_smi>  (775) 
CC(Nc1cnccn1)c1cccc(Cl)c1

>  <enum_smi>  (775) 
C[C@@H](Nc1cnccn1)c1cccc(Cl)c1

>  <enum_code>  (775) 
C

>  <parent_uuid>  (775) 
6620cc01-fc2b-4cc4-81f0-045e40704b17

>  <o3da_score>  (775) 
80.391049159284975

>  <o3da_score_rel>  (775) 
0.3200484471912422

>  <o3da_align>  (775) 
0.45969573355348353

>  <RMSD>  (775) 
6.7531825794973338e-05

>  <CONVERGED>  (775) 
0

>  <ENERGY>  (775) 
50.822916899057432

$$$$
34268c35-407c-4dc4-be03-71002a19d8a1
     RDKit          3D

 16 17  0  0  0  0  0  0  0  0999 V2000
   -3.3326   28.9733    6.0672 C   0  0  0  0  0  0  0  0  0  0  0  0
   -4.3307   28.2410    5.1612 C   0  0  1  0  0  0  0  0  0  0  0  0
   -4.5786   28.9821    3.9132 N   0  0  0  0  0  0  0  0  0  0  0  0
   -3.4898   29.3725    3.1414 C   0  0  0  0  0  0  0  0  0  0  0  0
   -2.5659   28.4996    2.5660 C   0  0  0  0  0  0  0  0  0  0  0  0
   -1.5080   28.9097    1.8179 N   0  0  0  0  0  0  0  0  0  0  0  0
   -1.4177   30.2431    1.6439 C   0  0  0  0  0  0  0  0  0  0  0  0
   -2.3369   31.1187    2.1916 C   0  0  0  0  0  0  0  0  0  0  0  0
   -3.3834   30.7039    2.9449 N   0  0  0  0  0  0  0  0  0  0  0  0
   -4.0713   26.7641    4.8997 C   0  0  0  0  0  0  0  0  0  0  0  0
   -5.0200   26.0264    4.1645 C   0  0  0  0  0  0  0  0  0  0  0  0
   -4.8371   24.6666    3.9040 C   0  0  0  0  0  0  0  0  0  0  0  0
   -3.7023   24.0150    4.3795 C   0  0  0  0  0  0  0  0  0  0  0  0
   -2.7575   24.7278    5.1122 C   0  0  0  0  0  0  0  0  0  0  0  0
   -1.3545   23.9237    5.7029 Cl  0  0  0  0  0  0  0  0  0  0  0  0
   -2.9350   26.0889    5.3743 C   0  0  0  0  0  0  0  0  0  0  0  0
  2  1  1  6
  2  3  1  0
  3  4  1  0
  4  5  2  0
  5  6  1  0
  6  7  2  0
  7  8  1  0
  8  9  2  0
  2 10  1  0
 10 11  2  0
 11 12  1  0
 12 13  2  0
 13 14  1  0
 14 15  1  0
 14 16  2  0
  9  4  1  0
 16 10  1  0
M  END
>  <Energy>  (776) 
50.91180895242784

>  <Energy_Delta>  (776) 
2.6536814457757174

>  <std_smi>  (776) 
CC(Nc1cnccn1)c1cccc(Cl)c1

>  <enum_smi>  (776) 
C[C@@H](Nc1cnccn1)c1cccc(Cl)c1

>  <enum_code>  (776) 
C

>  <parent_uuid>  (776) 
6620cc01-fc2b-4cc4-81f0-045e40704b17

>  <o3da_score>  (776) 
81.086392154598173

>  <o3da_score_rel>  (776) 
0.32281670868605555

>  <o3da_align>  (776) 
0.43812335694449572

>  <RMSD>  (776) 
6.4443620180516188e-05

>  <CONVERGED>  (776) 
0

>  <ENERGY>  (776) 
50.911808942980372

$$$$
34268c35-407c-4dc4-be03-71002a19d8a1
     RDKit          3D

 16 17  0  0  0  0  0  0  0  0999 V2000
   -4.6386   27.6957    7.3413 C   0  0  0  0  0  0  0  0  0  0  0  0
   -4.9825   27.3407    5.8904 C   0  0  1  0  0  0  0  0  0  0  0  0
   -4.8593   28.4968    4.9926 N   0  0  0  0  0  0  0  0  0  0  0  0
   -3.5987   29.0483    4.7317 C   0  0  0  0  0  0  0  0  0  0  0  0
   -3.4962   30.1240    3.8399 C   0  0  0  0  0  0  0  0  0  0  0  0
   -2.3293   30.7288    3.4978 N   0  0  0  0  0  0  0  0  0  0  0  0
   -1.2322   30.1956    4.0699 C   0  0  0  0  0  0  0  0  0  0  0  0
   -1.3065   29.1259    4.9420 C   0  0  0  0  0  0  0  0  0  0  0  0
   -2.4796   28.5439    5.2878 N   0  0  0  0  0  0  0  0  0  0  0  0
   -4.3493   26.0882    5.3010 C   0  0  0  0  0  0  0  0  0  0  0  0
   -4.8843   25.5441    4.1176 C   0  0  0  0  0  0  0  0  0  0  0  0
   -4.3411   24.3940    3.5403 C   0  0  0  0  0  0  0  0  0  0  0  0
   -3.2479   23.7687    4.1350 C   0  0  0  0  0  0  0  0  0  0  0  0
   -2.7020   24.3004    5.3004 C   0  0  0  0  0  0  0  0  0  0  0  0
   -1.3424   23.5353    6.0297 Cl  0  0  0  0  0  0  0  0  0  0  0  0
   -3.2442   25.4476    5.8828 C   0  0  0  0  0  0  0  0  0  0  0  0
  2  1  1  1
  2  3  1  0
  3  4  1  0
  4  5  2  0
  5  6  1  0
  6  7  2  0
  7  8  1  0
  8  9  2  0
  2 10  1  0
 10 11  2  0
 11 12  1  0
 12 13  2  0
 13 14  1  0
 14 15  1  0
 14 16  2  0
  9  4  1  0
 16 10  1  0
M  END
>  <Energy>  (777) 
54.463887792517049

>  <Energy_Delta>  (777) 
6.2057602858649261

>  <std_smi>  (777) 
CC(Nc1cnccn1)c1cccc(Cl)c1

>  <enum_smi>  (777) 
C[C@@H](Nc1cnccn1)c1cccc(Cl)c1

>  <enum_code>  (777) 
C

>  <parent_uuid>  (777) 
6620cc01-fc2b-4cc4-81f0-045e40704b17

>  <o3da_score>  (777) 
74.770513454783071

>  <o3da_score_rel>  (777) 
0.29767227791094603

>  <o3da_align>  (777) 
0.53370325193274892

>  <RMSD>  (777) 
0.21909609199633612

>  <CONVERGED>  (777) 
0

>  <ENERGY>  (777) 
55.221642081803232

$$$$
34268c35-407c-4dc4-be03-71002a19d8a1
     RDKit          3D

 16 17  0  0  0  0  0  0  0  0999 V2000
   -3.7541   29.1569    5.3618 C   0  0  0  0  0  0  0  0  0  0  0  0
   -4.5845   28.1661    4.5385 C   0  0  1  0  0  0  0  0  0  0  0  0
   -4.8068   28.6390    3.1656 N   0  0  0  0  0  0  0  0  0  0  0  0
   -3.7300   28.7350    2.2757 C   0  0  0  0  0  0  0  0  0  0  0  0
   -3.9689   29.1506    0.9591 C   0  0  0  0  0  0  0  0  0  0  0  0
   -3.0093   29.2672    0.0051 N   0  0  0  0  0  0  0  0  0  0  0  0
   -1.7718   28.9208    0.4090 C   0  0  0  0  0  0  0  0  0  0  0  0
   -1.5140   28.4940    1.6982 C   0  0  0  0  0  0  0  0  0  0  0  0
   -2.4778   28.3997    2.6450 N   0  0  0  0  0  0  0  0  0  0  0  0
   -4.1823   26.6984    4.5809 C   0  0  0  0  0  0  0  0  0  0  0  0
   -2.9683   26.2532    5.1274 C   0  0  0  0  0  0  0  0  0  0  0  0
   -2.6481   24.8923    5.1549 C   0  0  0  0  0  0  0  0  0  0  0  0
   -3.5365   23.9534    4.6344 C   0  0  0  0  0  0  0  0  0  0  0  0
   -4.7411   24.3796    4.0832 C   0  0  0  0  0  0  0  0  0  0  0  0
   -5.8400   23.2242    3.4350 Cl  0  0  0  0  0  0  0  0  0  0  0  0
   -5.0651   25.7357    4.0549 C   0  0  0  0  0  0  0  0  0  0  0  0
  2  1  1  6
  2  3  1  0
  3  4  1  0
  4  5  2  0
  5  6  1  0
  6  7  2  0
  7  8  1  0
  8  9  2  0
  2 10  1  0
 10 11  2  0
 11 12  1  0
 12 13  2  0
 13 14  1  0
 14 15  1  0
 14 16  2  0
  9  4  1  0
 16 10  1  0
M  END
>  <Energy>  (778) 
54.687174944332284

>  <Energy_Delta>  (778) 
6.4290474376801612

>  <std_smi>  (778) 
CC(Nc1cnccn1)c1cccc(Cl)c1

>  <enum_smi>  (778) 
C[C@@H](Nc1cnccn1)c1cccc(Cl)c1

>  <enum_code>  (778) 
C

>  <parent_uuid>  (778) 
6620cc01-fc2b-4cc4-81f0-045e40704b17

>  <o3da_score>  (778) 
70.950683148364348

>  <o3da_score_rel>  (778) 
0.28246497845549218

>  <o3da_align>  (778) 
0.39033169062739687

>  <RMSD>  (778) 
0.28354319320274313

>  <CONVERGED>  (778) 
0

>  <ENERGY>  (778) 
55.417192215166644

$$$$
05f50ff2-74b2-4de9-a541-dc10b52fd865
     RDKit          3D

 16 17  0  0  0  0  0  0  0  0999 V2000
   -5.4377   28.3610    6.3747 C   0  0  0  0  0  0  0  0  0  0  0  0
   -4.7700   28.1638    5.0119 C   0  0  1  0  0  0  0  0  0  0  0  0
   -3.6908   29.1530    4.9060 N   0  0  0  0  0  0  0  0  0  0  0  0
   -3.1644   29.3714    3.7530 C   0  0  0  0  0  0  0  0  0  0  0  0
   -2.0724   30.4454    3.7262 C   0  0  0  0  0  0  0  0  0  0  0  0
   -1.4054   30.7613    2.6518 N   0  0  0  0  0  0  0  0  0  0  0  0
   -1.7229   30.0718    1.5008 C   0  0  0  0  0  0  0  0  0  0  0  0
   -2.6760   29.1294    1.4334 C   0  0  0  0  0  0  0  0  0  0  0  0
   -3.4195   28.7885    2.5326 N   0  0  0  0  0  0  0  0  0  0  0  0
   -4.2988   26.7265    4.8708 C   0  0  0  0  0  0  0  0  0  0  0  0
   -3.0776   26.3024    5.4182 C   0  0  0  0  0  0  0  0  0  0  0  0
   -2.6562   24.9780    5.2840 C   0  0  0  0  0  0  0  0  0  0  0  0
   -3.4538   24.0576    4.6060 C   0  0  0  0  0  0  0  0  0  0  0  0
   -4.6724   24.4657    4.0694 C   0  0  0  0  0  0  0  0  0  0  0  0
   -5.6611   23.3315    3.2342 Cl  0  0  0  0  0  0  0  0  0  0  0  0
   -5.0990   25.7879    4.2001 C   0  0  0  0  0  0  0  0  0  0  0  0
  2  1  1  1
  2  3  1  0
  3  4  2  3
  4  5  1  0
  5  6  2  0
  6  7  1  0
  7  8  2  0
  8  9  1  0
  2 10  1  0
 10 11  2  0
 11 12  1  0
 12 13  2  0
 13 14  1  0
 14 15  1  0
 14 16  2  0
  9  4  1  0
 16 10  1  0
M  END
>  <Energy>  (779) 
68.774925486976798

>  <Energy_Delta>  (779) 
0

>  <std_smi>  (779) 
CC(Nc1cnccn1)c1cccc(Cl)c1

>  <enum_smi>  (779) 
CC(N=c1cncc[nH]1)c1cccc(Cl)c1

>  <enum_code>  (779) 
T

>  <parent_uuid>  (779) 
6620cc01-fc2b-4cc4-81f0-045e40704b17

>  <o3da_score>  (779) 
90.035596652888742

>  <o3da_score_rel>  (779) 
0.35844479207628172

>  <o3da_align>  (779) 
0.41186009154521652

>  <RMSD>  (779) 
6.8707585094750527e-05

>  <CONVERGED>  (779) 
0

>  <ENERGY>  (779) 
68.774925400495704

$$$$
05f50ff2-74b2-4de9-a541-dc10b52fd865
     RDKit          3D

 16 17  0  0  0  0  0  0  0  0999 V2000
   -2.5270   28.1309    5.9687 C   0  0  0  0  0  0  0  0  0  0  0  0
   -3.5501   28.8706    5.1039 C   0  0  2  0  0  0  0  0  0  0  0  0
   -4.6759   27.9560    4.8789 N   0  0  0  0  0  0  0  0  0  0  0  0
   -5.7769   28.4339    4.4167 C   0  0  0  0  0  0  0  0  0  0  0  0
   -6.9106   27.4176    4.2483 C   0  0  0  0  0  0  0  0  0  0  0  0
   -8.0772   27.7222    3.7530 N   0  0  0  0  0  0  0  0  0  0  0  0
   -8.2637   29.0333    3.3692 C   0  0  0  0  0  0  0  0  0  0  0  0
   -7.3306   29.9892    3.4976 C   0  0  0  0  0  0  0  0  0  0  0  0
   -6.1021   29.7170    4.0399 N   0  0  0  0  0  0  0  0  0  0  0  0
   -2.8904   29.3555    3.8243 C   0  0  0  0  0  0  0  0  0  0  0  0
   -2.7240   28.5030    2.7213 C   0  0  0  0  0  0  0  0  0  0  0  0
   -2.1139   28.9595    1.5513 C   0  0  0  0  0  0  0  0  0  0  0  0
   -1.6557   30.2735    1.4706 C   0  0  0  0  0  0  0  0  0  0  0  0
   -1.8056   31.1237    2.5634 C   0  0  0  0  0  0  0  0  0  0  0  0
   -1.2386   32.7457    2.4684 Cl  0  0  0  0  0  0  0  0  0  0  0  0
   -2.4146   30.6733    3.7354 C   0  0  0  0  0  0  0  0  0  0  0  0
  2  1  1  1
  2  3  1  0
  3  4  2  3
  4  5  1  0
  5  6  2  0
  6  7  1  0
  7  8  2  0
  8  9  1  0
  2 10  1  0
 10 11  2  0
 11 12  1  0
 12 13  2  0
 13 14  1  0
 14 15  1  0
 14 16  2  0
  9  4  1  0
 16 10  1  0
M  END
>  <Energy>  (780) 
68.77492573550488

>  <Energy_Delta>  (780) 
2.485280816699742e-07

>  <std_smi>  (780) 
CC(Nc1cnccn1)c1cccc(Cl)c1

>  <enum_smi>  (780) 
CC(N=c1cncc[nH]1)c1cccc(Cl)c1

>  <enum_code>  (780) 
T

>  <parent_uuid>  (780) 
6620cc01-fc2b-4cc4-81f0-045e40704b17

>  <o3da_score>  (780) 
71.283071781682395

>  <o3da_score_rel>  (780) 
0.2837882658994299

>  <o3da_align>  (780) 
0.31809828709850829

>  <RMSD>  (780) 
0.00014067423526902949

>  <CONVERGED>  (780) 
0

>  <ENERGY>  (780) 
68.774925400561173

$$$$
05f50ff2-74b2-4de9-a541-dc10b52fd865
     RDKit          3D

 16 17  0  0  0  0  0  0  0  0999 V2000
   -5.4405   28.2565    6.2495 C   0  0  0  0  0  0  0  0  0  0  0  0
   -4.4885   28.0481    5.0697 C   0  0  2  0  0  0  0  0  0  0  0  0
   -5.1085   28.6682    3.8927 N   0  0  0  0  0  0  0  0  0  0  0  0
   -4.3896   28.8589    2.8434 C   0  0  0  0  0  0  0  0  0  0  0  0
   -5.1042   29.5495    1.6775 C   0  0  0  0  0  0  0  0  0  0  0  0
   -4.5368   29.7813    0.5271 N   0  0  0  0  0  0  0  0  0  0  0  0
   -3.2301   29.3650    0.3860 C   0  0  0  0  0  0  0  0  0  0  0  0
   -2.5269   28.7679    1.3606 C   0  0  0  0  0  0  0  0  0  0  0  0
   -3.0752   28.5352    2.5945 N   0  0  0  0  0  0  0  0  0  0  0  0
   -4.1935   26.5677    4.8997 C   0  0  0  0  0  0  0  0  0  0  0  0
   -3.0348   26.0123    5.4664 C   0  0  0  0  0  0  0  0  0  0  0  0
   -2.7526   24.6525    5.3200 C   0  0  0  0  0  0  0  0  0  0  0  0
   -3.6276   23.8304    4.6107 C   0  0  0  0  0  0  0  0  0  0  0  0
   -4.7852   24.3701    4.0547 C   0  0  0  0  0  0  0  0  0  0  0  0
   -5.8676   23.3538    3.1852 Cl  0  0  0  0  0  0  0  0  0  0  0  0
   -5.0725   25.7268    4.1983 C   0  0  0  0  0  0  0  0  0  0  0  0
  2  1  1  1
  2  3  1  0
  3  4  2  3
  4  5  1  0
  5  6  2  0
  6  7  1  0
  7  8  2  0
  8  9  1  0
  2 10  1  0
 10 11  2  0
 11 12  1  0
 12 13  2  0
 13 14  1  0
 14 15  1  0
 14 16  2  0
  9  4  1  0
 16 10  1  0
M  END
>  <Energy>  (781) 
68.870297198982954

>  <Energy_Delta>  (781) 
0.095371712006155462

>  <std_smi>  (781) 
CC(Nc1cnccn1)c1cccc(Cl)c1

>  <enum_smi>  (781) 
CC(N=c1cncc[nH]1)c1cccc(Cl)c1

>  <enum_code>  (781) 
T

>  <parent_uuid>  (781) 
6620cc01-fc2b-4cc4-81f0-045e40704b17

>  <o3da_score>  (781) 
66.176448794412735

>  <o3da_score_rel>  (781) 
0.26345805781583514

>  <o3da_align>  (781) 
0.54883250860868316

>  <RMSD>  (781) 
0.00017904457476670551

>  <CONVERGED>  (781) 
0

>  <ENERGY>  (781) 
68.870296452630242

$$$$
05f50ff2-74b2-4de9-a541-dc10b52fd865
     RDKit          3D

 16 17  0  0  0  0  0  0  0  0999 V2000
   -3.7017   29.2225    6.4166 C   0  0  0  0  0  0  0  0  0  0  0  0
   -3.4301   28.8512    4.9576 C   0  0  1  0  0  0  0  0  0  0  0  0
   -4.3929   27.8308    4.5342 N   0  0  0  0  0  0  0  0  0  0  0  0
   -4.1378   26.5892    4.7404 C   0  0  0  0  0  0  0  0  0  0  0  0
   -5.2092   25.6152    4.2375 C   0  0  0  0  0  0  0  0  0  0  0  0
   -5.1224   24.3219    4.3755 N   0  0  0  0  0  0  0  0  0  0  0  0
   -3.9962   23.8400    5.0075 C   0  0  0  0  0  0  0  0  0  0  0  0
   -3.0094   24.6210    5.4730 C   0  0  0  0  0  0  0  0  0  0  0  0
   -3.0597   25.9844    5.3456 N   0  0  0  0  0  0  0  0  0  0  0  0
   -3.5260   30.0907    4.0818 C   0  0  0  0  0  0  0  0  0  0  0  0
   -4.7696   30.5946    3.6662 C   0  0  0  0  0  0  0  0  0  0  0  0
   -4.8496   31.7449    2.8781 C   0  0  0  0  0  0  0  0  0  0  0  0
   -3.6861   32.4113    2.4978 C   0  0  0  0  0  0  0  0  0  0  0  0
   -2.4479   31.9236    2.9085 C   0  0  0  0  0  0  0  0  0  0  0  0
   -1.0092   32.7474    2.4445 Cl  0  0  0  0  0  0  0  0  0  0  0  0
   -2.3620   30.7745    3.6960 C   0  0  0  0  0  0  0  0  0  0  0  0
  2  1  1  1
  2  3  1  0
  3  4  2  3
  4  5  1  0
  5  6  2  0
  6  7  1  0
  7  8  2  0
  8  9  1  0
  2 10  1  0
 10 11  2  0
 11 12  1  0
 12 13  2  0
 13 14  1  0
 14 15  1  0
 14 16  2  0
  9  4  1  0
 16 10  1  0
M  END
>  <Energy>  (782) 
71.130489489506147

>  <Energy_Delta>  (782) 
2.3555640025293485

>  <std_smi>  (782) 
CC(Nc1cnccn1)c1cccc(Cl)c1

>  <enum_smi>  (782) 
CC(N=c1cncc[nH]1)c1cccc(Cl)c1

>  <enum_code>  (782) 
T

>  <parent_uuid>  (782) 
6620cc01-fc2b-4cc4-81f0-045e40704b17

>  <o3da_score>  (782) 
80.985291313189876

>  <o3da_score_rel>  (782) 
0.3224142115468735

>  <o3da_align>  (782) 
0.48966722902080839

>  <RMSD>  (782) 
5.7102120737269198e-05

>  <CONVERGED>  (782) 
0

>  <ENERGY>  (782) 
71.130489487761125

$$$$
05f50ff2-74b2-4de9-a541-dc10b52fd865
     RDKit          3D

 16 17  0  0  0  0  0  0  0  0999 V2000
   -2.8324   28.3215    5.9779 C   0  0  0  0  0  0  0  0  0  0  0  0
   -3.6997   29.0144    4.9252 C   0  0  2  0  0  0  0  0  0  0  0  0
   -4.7632   28.0998    4.5012 N   0  0  0  0  0  0  0  0  0  0  0  0
   -5.8645   28.0537    5.1602 C   0  0  0  0  0  0  0  0  0  0  0  0
   -6.9079   27.0743    4.6111 C   0  0  0  0  0  0  0  0  0  0  0  0
   -8.0744   26.8877    5.1621 N   0  0  0  0  0  0  0  0  0  0  0  0
   -8.3516   27.6267    6.2922 C   0  0  0  0  0  0  0  0  0  0  0  0
   -7.4985   28.5083    6.8357 C   0  0  0  0  0  0  0  0  0  0  0  0
   -6.2641   28.7367    6.2864 N   0  0  0  0  0  0  0  0  0  0  0  0
   -2.8402   29.4388    3.7445 C   0  0  0  0  0  0  0  0  0  0  0  0
   -2.4622   28.5204    2.7512 C   0  0  0  0  0  0  0  0  0  0  0  0
   -1.6565   28.9140    1.6805 C   0  0  0  0  0  0  0  0  0  0  0  0
   -1.2127   30.2321    1.5901 C   0  0  0  0  0  0  0  0  0  0  0  0
   -1.5769   31.1500    2.5722 C   0  0  0  0  0  0  0  0  0  0  0  0
   -1.0262   32.7776    2.4660 Cl  0  0  0  0  0  0  0  0  0  0  0  0
   -2.3822   30.7622    3.6443 C   0  0  0  0  0  0  0  0  0  0  0  0
  2  1  1  1
  2  3  1  0
  3  4  2  3
  4  5  1  0
  5  6  2  0
  6  7  1  0
  7  8  2  0
  8  9  1  0
  2 10  1  0
 10 11  2  0
 11 12  1  0
 12 13  2  0
 13 14  1  0
 14 15  1  0
 14 16  2  0
  9  4  1  0
 16 10  1  0
M  END
>  <Energy>  (783) 
71.130489650372468

>  <Energy_Delta>  (783) 
2.3555641633956697

>  <std_smi>  (783) 
CC(Nc1cnccn1)c1cccc(Cl)c1

>  <enum_smi>  (783) 
CC(N=c1cncc[nH]1)c1cccc(Cl)c1

>  <enum_code>  (783) 
T

>  <parent_uuid>  (783) 
6620cc01-fc2b-4cc4-81f0-045e40704b17

>  <o3da_score>  (783) 
71.09065777974547

>  <o3da_score_rel>  (783) 
0.28302223780075747

>  <o3da_align>  (783) 
0.3004536047033402

>  <RMSD>  (783) 
6.3182272986628344e-05

>  <CONVERGED>  (783) 
0

>  <ENERGY>  (783) 
71.130489485630207

$$$$
05f50ff2-74b2-4de9-a541-dc10b52fd865
     RDKit          3D

 16 17  0  0  0  0  0  0  0  0999 V2000
   -2.7973   28.2963    5.9242 C   0  0  0  0  0  0  0  0  0  0  0  0
   -3.6847   29.0145    4.9057 C   0  0  2  0  0  0  0  0  0  0  0  0
   -4.7601   28.1133    4.4840 N   0  0  0  0  0  0  0  0  0  0  0  0
   -5.8455   28.0510    5.1674 C   0  0  0  0  0  0  0  0  0  0  0  0
   -6.9042   27.0886    4.6173 C   0  0  0  0  0  0  0  0  0  0  0  0
   -8.0573   26.8893    5.1916 N   0  0  0  0  0  0  0  0  0  0  0  0
   -8.3048   27.5970    6.3482 C   0  0  0  0  0  0  0  0  0  0  0  0
   -7.4367   28.4621    6.8945 C   0  0  0  0  0  0  0  0  0  0  0  0
   -6.2162   28.7044    6.3208 N   0  0  0  0  0  0  0  0  0  0  0  0
   -2.8501   29.4604    3.7153 C   0  0  0  0  0  0  0  0  0  0  0  0
   -2.3992   30.7873    3.6234 C   0  0  0  0  0  0  0  0  0  0  0  0
   -1.6165   31.2016    2.5429 C   0  0  0  0  0  0  0  0  0  0  0  0
   -1.2710   30.2942    1.5423 C   0  0  0  0  0  0  0  0  0  0  0  0
   -1.7089   28.9747    1.6262 C   0  0  0  0  0  0  0  0  0  0  0  0
   -1.2786   27.8533    0.3934 Cl  0  0  0  0  0  0  0  0  0  0  0  0
   -2.4900   28.5557    2.7026 C   0  0  0  0  0  0  0  0  0  0  0  0
  2  1  1  1
  2  3  1  0
  3  4  2  3
  4  5  1  0
  5  6  2  0
  6  7  1  0
  7  8  2  0
  8  9  1  0
  2 10  1  0
 10 11  2  0
 11 12  1  0
 12 13  2  0
 13 14  1  0
 14 15  1  0
 14 16  2  0
  9  4  1  0
 16 10  1  0
M  END
>  <Energy>  (784) 
71.186498392965149

>  <Energy_Delta>  (784) 
2.4115729059883506

>  <std_smi>  (784) 
CC(Nc1cnccn1)c1cccc(Cl)c1

>  <enum_smi>  (784) 
CC(N=c1cncc[nH]1)c1cccc(Cl)c1

>  <enum_code>  (784) 
T

>  <parent_uuid>  (784) 
6620cc01-fc2b-4cc4-81f0-045e40704b17

>  <o3da_score>  (784) 
68.219208046835774

>  <o3da_score_rel>  (784) 
0.27159057920423185

>  <o3da_align>  (784) 
0.29521783653502792

>  <RMSD>  (784) 
7.3921295004142573e-05

>  <CONVERGED>  (784) 
0

>  <ENERGY>  (784) 
71.186498369461461

$$$$
05f50ff2-74b2-4de9-a541-dc10b52fd865
     RDKit          3D

 16 17  0  0  0  0  0  0  0  0999 V2000
   -4.8910   28.5008    6.0967 C   0  0  0  0  0  0  0  0  0  0  0  0
   -4.4465   28.0356    4.7087 C   0  0  1  0  0  0  0  0  0  0  0  0
   -3.2271   28.7532    4.3281 N   0  0  0  0  0  0  0  0  0  0  0  0
   -3.3135   29.8996    3.7559 C   0  0  0  0  0  0  0  0  0  0  0  0
   -1.9721   30.5434    3.3874 C   0  0  0  0  0  0  0  0  0  0  0  0
   -1.8718   31.7105    2.8156 N   0  0  0  0  0  0  0  0  0  0  0  0
   -3.0505   32.3702    2.5412 C   0  0  0  0  0  0  0  0  0  0  0  0
   -4.2657   31.8772    2.8253 C   0  0  0  0  0  0  0  0  0  0  0  0
   -4.4160   30.6527    3.4216 N   0  0  0  0  0  0  0  0  0  0  0  0
   -4.2136   26.5329    4.7163 C   0  0  0  0  0  0  0  0  0  0  0  0
   -5.1996   25.6606    4.2270 C   0  0  0  0  0  0  0  0  0  0  0  0
   -5.0023   24.2777    4.2469 C   0  0  0  0  0  0  0  0  0  0  0  0
   -3.8187   23.7484    4.7597 C   0  0  0  0  0  0  0  0  0  0  0  0
   -2.8363   24.6044    5.2518 C   0  0  0  0  0  0  0  0  0  0  0  0
   -1.3771   23.9509    5.8891 Cl  0  0  0  0  0  0  0  0  0  0  0  0
   -3.0282   25.9854    5.2348 C   0  0  0  0  0  0  0  0  0  0  0  0
  2  1  1  1
  2  3  1  0
  3  4  2  3
  4  5  1  0
  5  6  2  0
  6  7  1  0
  7  8  2  0
  8  9  1  0
  2 10  1  0
 10 11  2  0
 11 12  1  0
 12 13  2  0
 13 14  1  0
 14 15  1  0
 14 16  2  0
  9  4  1  0
 16 10  1  0
M  END
>  <Energy>  (785) 
71.186498446288468

>  <Energy_Delta>  (785) 
2.4115729593116697

>  <std_smi>  (785) 
CC(Nc1cnccn1)c1cccc(Cl)c1

>  <enum_smi>  (785) 
CC(N=c1cncc[nH]1)c1cccc(Cl)c1

>  <enum_code>  (785) 
T

>  <parent_uuid>  (785) 
6620cc01-fc2b-4cc4-81f0-045e40704b17

>  <o3da_score>  (785) 
78.485176579065893

>  <o3da_score_rel>  (785) 
0.31246089153395873

>  <o3da_align>  (785) 
0.39275915832118818

>  <RMSD>  (785) 
6.7793936222731386e-05

>  <CONVERGED>  (785) 
0

>  <ENERGY>  (785) 
71.186498368481409

$$$$
05f50ff2-74b2-4de9-a541-dc10b52fd865
     RDKit          3D

 16 17  0  0  0  0  0  0  0  0999 V2000
   -2.5326   28.1742    5.9700 C   0  0  0  0  0  0  0  0  0  0  0  0
   -3.5592   28.9006    5.0955 C   0  0  2  0  0  0  0  0  0  0  0  0
   -4.6651   27.9683    4.8646 N   0  0  0  0  0  0  0  0  0  0  0  0
   -5.8196   28.3749    4.4550 C   0  0  0  0  0  0  0  0  0  0  0  0
   -6.1854   29.8332    4.1541 C   0  0  0  0  0  0  0  0  0  0  0  0
   -7.3746   30.2018    3.7623 N   0  0  0  0  0  0  0  0  0  0  0  0
   -8.3189   29.2078    3.6124 C   0  0  0  0  0  0  0  0  0  0  0  0
   -8.0777   27.9082    3.8435 C   0  0  0  0  0  0  0  0  0  0  0  0
   -6.8454   27.4847    4.2552 N   0  0  0  0  0  0  0  0  0  0  0  0
   -2.8920   29.3750    3.8163 C   0  0  0  0  0  0  0  0  0  0  0  0
   -2.7370   28.5203    2.7130 C   0  0  0  0  0  0  0  0  0  0  0  0
   -2.1130   28.9655    1.5458 C   0  0  0  0  0  0  0  0  0  0  0  0
   -1.6280   30.2700    1.4684 C   0  0  0  0  0  0  0  0  0  0  0  0
   -1.7662   31.1224    2.5611 C   0  0  0  0  0  0  0  0  0  0  0  0
   -1.1611   32.7310    2.4711 Cl  0  0  0  0  0  0  0  0  0  0  0  0
   -2.3897   30.6833    3.7298 C   0  0  0  0  0  0  0  0  0  0  0  0
  2  1  1  1
  2  3  1  0
  3  4  2  3
  4  5  1  0
  5  6  2  0
  6  7  1  0
  7  8  2  0
  8  9  1  0
  2 10  1  0
 10 11  2  0
 11 12  1  0
 12 13  2  0
 13 14  1  0
 14 15  1  0
 14 16  2  0
  9  4  1  0
 16 10  1  0
M  END
>  <Energy>  (786) 
71.667259654383415

>  <Energy_Delta>  (786) 
2.8923341674066165

>  <std_smi>  (786) 
CC(Nc1cnccn1)c1cccc(Cl)c1

>  <enum_smi>  (786) 
CC(N=c1cncc[nH]1)c1cccc(Cl)c1

>  <enum_code>  (786) 
T

>  <parent_uuid>  (786) 
6620cc01-fc2b-4cc4-81f0-045e40704b17

>  <o3da_score>  (786) 
71.820127228280583

>  <o3da_score_rel>  (786) 
0.28592636166428032

>  <o3da_align>  (786) 
0.29420434394905626

>  <RMSD>  (786) 
0.00010080849536173792

>  <CONVERGED>  (786) 
0

>  <ENERGY>  (786) 
71.66725957449853

$$$$
05f50ff2-74b2-4de9-a541-dc10b52fd865
     RDKit          3D

 16 17  0  0  0  0  0  0  0  0999 V2000
   -2.8029   29.2686    3.8893 C   0  0  0  0  0  0  0  0  0  0  0  0
   -3.7450   29.0042    5.0692 C   0  0  1  0  0  0  0  0  0  0  0  0
   -4.6109   27.8615    4.7403 N   0  0  0  0  0  0  0  0  0  0  0  0
   -4.1760   26.6539    4.7559 C   0  0  0  0  0  0  0  0  0  0  0  0
   -5.2058   25.5910    4.3552 C   0  0  0  0  0  0  0  0  0  0  0  0
   -4.9519   24.3125    4.3494 N   0  0  0  0  0  0  0  0  0  0  0  0
   -3.6842   23.9316    4.7342 C   0  0  0  0  0  0  0  0  0  0  0  0
   -2.7194   24.7958    5.0846 C   0  0  0  0  0  0  0  0  0  0  0  0
   -2.9374   26.1481    5.0753 N   0  0  0  0  0  0  0  0  0  0  0  0
   -3.1118   28.9362    6.4528 C   0  0  0  0  0  0  0  0  0  0  0  0
   -1.7540   29.2038    6.6905 C   0  0  0  0  0  0  0  0  0  0  0  0
   -1.2242   29.1306    7.9825 C   0  0  0  0  0  0  0  0  0  0  0  0
   -2.0442   28.7974    9.0589 C   0  0  0  0  0  0  0  0  0  0  0  0
   -3.3948   28.5440    8.8413 C   0  0  0  0  0  0  0  0  0  0  0  0
   -4.4124   28.1389   10.1680 Cl  0  0  0  0  0  0  0  0  0  0  0  0
   -3.9277   28.6164    7.5546 C   0  0  0  0  0  0  0  0  0  0  0  0
  2  1  1  6
  2  3  1  0
  3  4  2  3
  4  5  1  0
  5  6  2  0
  6  7  1  0
  7  8  2  0
  8  9  1  0
  2 10  1  0
 10 11  2  0
 11 12  1  0
 12 13  2  0
 13 14  1  0
 14 15  1  0
 14 16  2  0
  9  4  1  0
 16 10  1  0
M  END
>  <Energy>  (787) 
72.026398258773199

>  <Energy_Delta>  (787) 
3.2514727717964007

>  <std_smi>  (787) 
CC(Nc1cnccn1)c1cccc(Cl)c1

>  <enum_smi>  (787) 
CC(N=c1cncc[nH]1)c1cccc(Cl)c1

>  <enum_code>  (787) 
T

>  <parent_uuid>  (787) 
6620cc01-fc2b-4cc4-81f0-045e40704b17

>  <o3da_score>  (787) 
68.885084562502598

>  <o3da_score_rel>  (787) 
0.27424153036221494

>  <o3da_align>  (787) 
0.22887585739772245

>  <RMSD>  (787) 
7.4186882269988632e-05

>  <CONVERGED>  (787) 
0

>  <ENERGY>  (787) 
72.026398209446924

$$$$
05f50ff2-74b2-4de9-a541-dc10b52fd865
     RDKit          3D

 16 17  0  0  0  0  0  0  0  0999 V2000
   -6.0475   28.5779    4.4103 C   0  0  0  0  0  0  0  0  0  0  0  0
   -4.7629   28.1044    5.0995 C   0  0  2  0  0  0  0  0  0  0  0  0
   -3.7250   29.1330    4.9305 N   0  0  0  0  0  0  0  0  0  0  0  0
   -3.1175   29.3069    3.8131 C   0  0  0  0  0  0  0  0  0  0  0  0
   -2.0891   30.4441    3.8070 C   0  0  0  0  0  0  0  0  0  0  0  0
   -1.3533   30.7402    2.7725 N   0  0  0  0  0  0  0  0  0  0  0  0
   -1.5312   29.9673    1.6451 C   0  0  0  0  0  0  0  0  0  0  0  0
   -2.4187   28.9646    1.5601 C   0  0  0  0  0  0  0  0  0  0  0  0
   -3.2307   28.6414    2.6148 N   0  0  0  0  0  0  0  0  0  0  0  0
   -4.2997   26.6864    4.7913 C   0  0  0  0  0  0  0  0  0  0  0  0
   -5.0414   25.7895    4.0059 C   0  0  0  0  0  0  0  0  0  0  0  0
   -4.5712   24.4963    3.7568 C   0  0  0  0  0  0  0  0  0  0  0  0
   -3.3569   24.0758    4.2956 C   0  0  0  0  0  0  0  0  0  0  0  0
   -2.6177   24.9483    5.0882 C   0  0  0  0  0  0  0  0  0  0  0  0
   -1.1212   24.4312    5.7611 Cl  0  0  0  0  0  0  0  0  0  0  0  0
   -3.0829   26.2386    5.3397 C   0  0  0  0  0  0  0  0  0  0  0  0
  2  1  1  6
  2  3  1  0
  3  4  2  3
  4  5  1  0
  5  6  2  0
  6  7  1  0
  7  8  2  0
  8  9  1  0
  2 10  1  0
 10 11  2  0
 11 12  1  0
 12 13  2  0
 13 14  1  0
 14 15  1  0
 14 16  2  0
  9  4  1  0
 16 10  1  0
M  END
>  <Energy>  (788) 
72.026398315173594

>  <Energy_Delta>  (788) 
3.2514728281967962

>  <std_smi>  (788) 
CC(Nc1cnccn1)c1cccc(Cl)c1

>  <enum_smi>  (788) 
CC(N=c1cncc[nH]1)c1cccc(Cl)c1

>  <enum_code>  (788) 
T

>  <parent_uuid>  (788) 
6620cc01-fc2b-4cc4-81f0-045e40704b17

>  <o3da_score>  (788) 
100.78605666758061

>  <o3da_score_rel>  (788) 
0.40124393539230446

>  <o3da_align>  (788) 
0.46743342502381602

>  <RMSD>  (788) 
9.1842847362181798e-05

>  <CONVERGED>  (788) 
0

>  <ENERGY>  (788) 
72.026398209821181

$$$$
05f50ff2-74b2-4de9-a541-dc10b52fd865
     RDKit          3D

 16 17  0  0  0  0  0  0  0  0999 V2000
   -5.6575   28.8381    4.6861 C   0  0  0  0  0  0  0  0  0  0  0  0
   -4.3105   28.1153    4.7443 C   0  0  2  0  0  0  0  0  0  0  0  0
   -3.6516   28.2140    3.4415 N   0  0  0  0  0  0  0  0  0  0  0  0
   -2.9235   29.2229    3.1042 C   0  0  0  0  0  0  0  0  0  0  0  0
   -2.6660   30.4558    3.9775 C   0  0  0  0  0  0  0  0  0  0  0  0
   -1.8917   31.4400    3.6106 N   0  0  0  0  0  0  0  0  0  0  0  0
   -1.2974   31.3366    2.3698 C   0  0  0  0  0  0  0  0  0  0  0  0
   -1.4875   30.3030    1.5354 C   0  0  0  0  0  0  0  0  0  0  0  0
   -2.3012   29.2611    1.8813 N   0  0  0  0  0  0  0  0  0  0  0  0
   -4.5285   26.6590    5.1304 C   0  0  0  0  0  0  0  0  0  0  0  0
   -4.3478   26.2448    6.4602 C   0  0  0  0  0  0  0  0  0  0  0  0
   -4.5629   24.9145    6.8287 C   0  0  0  0  0  0  0  0  0  0  0  0
   -4.9652   23.9816    5.8739 C   0  0  0  0  0  0  0  0  0  0  0  0
   -5.1525   24.3830    4.5533 C   0  0  0  0  0  0  0  0  0  0  0  0
   -5.6529   23.2326    3.3748 Cl  0  0  0  0  0  0  0  0  0  0  0  0
   -4.9402   25.7096    4.1802 C   0  0  0  0  0  0  0  0  0  0  0  0
  2  1  1  6
  2  3  1  0
  3  4  2  3
  4  5  1  0
  5  6  2  0
  6  7  1  0
  7  8  2  0
  8  9  1  0
  2 10  1  0
 10 11  2  0
 11 12  1  0
 12 13  2  0
 13 14  1  0
 14 15  1  0
 14 16  2  0
  9  4  1  0
 16 10  1  0
M  END
>  <Energy>  (789) 
73.471092420629134

>  <Energy_Delta>  (789) 
4.6961669336523357

>  <std_smi>  (789) 
CC(Nc1cnccn1)c1cccc(Cl)c1

>  <enum_smi>  (789) 
CC(N=c1cncc[nH]1)c1cccc(Cl)c1

>  <enum_code>  (789) 
T

>  <parent_uuid>  (789) 
6620cc01-fc2b-4cc4-81f0-045e40704b17

>  <o3da_score>  (789) 
68.418019692562737

>  <o3da_score_rel>  (789) 
0.27238207725238367

>  <o3da_align>  (789) 
0.49108641416855126

>  <RMSD>  (789) 
7.0849240969275823e-05

>  <CONVERGED>  (789) 
0

>  <ENERGY>  (789) 
73.471092419783304

$$$$
05f50ff2-74b2-4de9-a541-dc10b52fd865
     RDKit          3D

 16 17  0  0  0  0  0  0  0  0999 V2000
   -3.5018   29.1893    6.3496 C   0  0  0  0  0  0  0  0  0  0  0  0
   -3.3069   28.7871    4.8865 C   0  0  1  0  0  0  0  0  0  0  0  0
   -4.3530   27.8390    4.5018 N   0  0  0  0  0  0  0  0  0  0  0  0
   -4.2519   26.5701    4.7056 C   0  0  0  0  0  0  0  0  0  0  0  0
   -3.0680   25.8786    5.3908 C   0  0  0  0  0  0  0  0  0  0  0  0
   -2.9900   24.5852    5.5447 N   0  0  0  0  0  0  0  0  0  0  0  0
   -4.0424   23.8351    5.0620 C   0  0  0  0  0  0  0  0  0  0  0  0
   -5.1250   24.3628    4.4702 C   0  0  0  0  0  0  0  0  0  0  0  0
   -5.2462   25.7137    4.3033 N   0  0  0  0  0  0  0  0  0  0  0  0
   -3.3515   30.0276    4.0054 C   0  0  0  0  0  0  0  0  0  0  0  0
   -2.1596   30.6325    3.5739 C   0  0  0  0  0  0  0  0  0  0  0  0
   -2.1893   31.7817    2.7801 C   0  0  0  0  0  0  0  0  0  0  0  0
   -3.4105   32.3437    2.4104 C   0  0  0  0  0  0  0  0  0  0  0  0
   -4.5984   31.7550    2.8374 C   0  0  0  0  0  0  0  0  0  0  0  0
   -6.1063   32.4506    2.3845 Cl  0  0  0  0  0  0  0  0  0  0  0  0
   -4.5746   30.6085    3.6305 C   0  0  0  0  0  0  0  0  0  0  0  0
  2  1  1  1
  2  3  1  0
  3  4  2  3
  4  5  1  0
  5  6  2  0
  6  7  1  0
  7  8  2  0
  8  9  1  0
  2 10  1  0
 10 11  2  0
 11 12  1  0
 12 13  2  0
 13 14  1  0
 14 15  1  0
 14 16  2  0
  9  4  1  0
 16 10  1  0
M  END
>  <Energy>  (790) 
73.471092427566134

>  <Energy_Delta>  (790) 
4.696166940589336

>  <std_smi>  (790) 
CC(Nc1cnccn1)c1cccc(Cl)c1

>  <enum_smi>  (790) 
CC(N=c1cncc[nH]1)c1cccc(Cl)c1

>  <enum_code>  (790) 
T

>  <parent_uuid>  (790) 
6620cc01-fc2b-4cc4-81f0-045e40704b17

>  <o3da_score>  (790) 
76.02335634499093

>  <o3da_score_rel>  (790) 
0.30266002748977217

>  <o3da_align>  (790) 
0.46668951583947971

>  <RMSD>  (790) 
7.450952520624243e-05

>  <CONVERGED>  (790) 
0

>  <ENERGY>  (790) 
73.471092418656269

$$$$
05f50ff2-74b2-4de9-a541-dc10b52fd865
     RDKit          3D

 16 17  0  0  0  0  0  0  0  0999 V2000
   -3.8409   27.9624    1.7315 C   0  0  0  0  0  0  0  0  0  0  0  0
   -2.7667   28.2189    2.7902 C   0  0  1  0  0  0  0  0  0  0  0  0
   -2.6886   29.6547    3.0629 N   0  0  0  0  0  0  0  0  0  0  0  0
   -1.9693   30.4581    2.3563 C   0  0  0  0  0  0  0  0  0  0  0  0
   -1.1332   30.0532    1.1369 C   0  0  0  0  0  0  0  0  0  0  0  0
   -0.3906   30.8946    0.4710 N   0  0  0  0  0  0  0  0  0  0  0  0
   -0.3842   32.2028    0.9086 C   0  0  0  0  0  0  0  0  0  0  0  0
   -1.1031   32.6438    1.9523 C   0  0  0  0  0  0  0  0  0  0  0  0
   -1.9023   31.7941    2.6643 N   0  0  0  0  0  0  0  0  0  0  0  0
   -3.1028   27.4449    4.0573 C   0  0  0  0  0  0  0  0  0  0  0  0
   -4.0636   27.9177    4.9667 C   0  0  0  0  0  0  0  0  0  0  0  0
   -4.3801   27.1915    6.1168 C   0  0  0  0  0  0  0  0  0  0  0  0
   -3.7429   25.9786    6.3723 C   0  0  0  0  0  0  0  0  0  0  0  0
   -2.7923   25.4977    5.4751 C   0  0  0  0  0  0  0  0  0  0  0  0
   -2.0074   23.9975    5.7864 Cl  0  0  0  0  0  0  0  0  0  0  0  0
   -2.4720   26.2191    4.3240 C   0  0  0  0  0  0  0  0  0  0  0  0
  2  1  1  6
  2  3  1  0
  3  4  2  3
  4  5  1  0
  5  6  2  0
  6  7  1  0
  7  8  2  0
  8  9  1  0
  2 10  1  0
 10 11  2  0
 11 12  1  0
 12 13  2  0
 13 14  1  0
 14 15  1  0
 14 16  2  0
  9  4  1  0
 16 10  1  0
M  END
>  <Energy>  (791) 
73.65037909463733

>  <Energy_Delta>  (791) 
4.8754536076605319

>  <std_smi>  (791) 
CC(Nc1cnccn1)c1cccc(Cl)c1

>  <enum_smi>  (791) 
CC(N=c1cncc[nH]1)c1cccc(Cl)c1

>  <enum_code>  (791) 
T

>  <parent_uuid>  (791) 
6620cc01-fc2b-4cc4-81f0-045e40704b17

>  <o3da_score>  (791) 
69.545032227069612

>  <o3da_score_rel>  (791) 
0.27686887790253206

>  <o3da_align>  (791) 
0.5604722115425973

>  <RMSD>  (791) 
5.9168171180115445e-05

>  <CONVERGED>  (791) 
0

>  <ENERGY>  (791) 
73.650379086075901

$$$$
05f50ff2-74b2-4de9-a541-dc10b52fd865
     RDKit          3D

 16 17  0  0  0  0  0  0  0  0999 V2000
   -2.7062   28.2025    5.8502 C   0  0  0  0  0  0  0  0  0  0  0  0
   -3.6231   28.9894    4.9118 C   0  0  2  0  0  0  0  0  0  0  0  0
   -4.7382   28.1370    4.4970 N   0  0  0  0  0  0  0  0  0  0  0  0
   -5.8138   28.0109    5.1964 C   0  0  0  0  0  0  0  0  0  0  0  0
   -6.0729   28.6882    6.5469 C   0  0  0  0  0  0  0  0  0  0  0  0
   -7.1926   28.5605    7.2049 N   0  0  0  0  0  0  0  0  0  0  0  0
   -8.1657   27.7679    6.6324 C   0  0  0  0  0  0  0  0  0  0  0  0
   -8.0115   27.1229    5.4658 C   0  0  0  0  0  0  0  0  0  0  0  0
   -6.8478   27.2225    4.7562 N   0  0  0  0  0  0  0  0  0  0  0  0
   -2.8292   29.4677    3.7041 C   0  0  0  0  0  0  0  0  0  0  0  0
   -2.5352   28.6033    2.6365 C   0  0  0  0  0  0  0  0  0  0  0  0
   -1.7894   29.0448    1.5414 C   0  0  0  0  0  0  0  0  0  0  0  0
   -1.3227   30.3575    1.5000 C   0  0  0  0  0  0  0  0  0  0  0  0
   -1.6040   31.2219    2.5553 C   0  0  0  0  0  0  0  0  0  0  0  0
   -1.0245   32.8423    2.5083 Cl  0  0  0  0  0  0  0  0  0  0  0  0
   -2.3487   30.7861    3.6522 C   0  0  0  0  0  0  0  0  0  0  0  0
  2  1  1  1
  2  3  1  0
  3  4  2  3
  4  5  1  0
  5  6  2  0
  6  7  1  0
  7  8  2  0
  8  9  1  0
  2 10  1  0
 10 11  2  0
 11 12  1  0
 12 13  2  0
 13 14  1  0
 14 15  1  0
 14 16  2  0
  9  4  1  0
 16 10  1  0
M  END
>  <Energy>  (792) 
73.650379141751458

>  <Energy_Delta>  (792) 
4.8754536547746596

>  <std_smi>  (792) 
CC(Nc1cnccn1)c1cccc(Cl)c1

>  <enum_smi>  (792) 
CC(N=c1cncc[nH]1)c1cccc(Cl)c1

>  <enum_code>  (792) 
T

>  <parent_uuid>  (792) 
6620cc01-fc2b-4cc4-81f0-045e40704b17

>  <o3da_score>  (792) 
71.09606379330026

>  <o3da_score_rel>  (792) 
0.28304375992619063

>  <o3da_align>  (792) 
0.29157341646672175

>  <RMSD>  (792) 
6.5022302389481553e-05

>  <CONVERGED>  (792) 
0

>  <ENERGY>  (792) 
73.650379085724197

$$$$
05f50ff2-74b2-4de9-a541-dc10b52fd865
     RDKit          3D

 16 17  0  0  0  0  0  0  0  0999 V2000
   -3.5204   29.1247    5.5640 C   0  0  0  0  0  0  0  0  0  0  0  0
   -4.5093   28.1685    4.8893 C   0  0  1  0  0  0  0  0  0  0  0  0
   -4.9350   28.7292    3.6019 N   0  0  0  0  0  0  0  0  0  0  0  0
   -4.2186   28.7704    2.5322 C   0  0  0  0  0  0  0  0  0  0  0  0
   -2.7854   28.2484    2.3949 C   0  0  0  0  0  0  0  0  0  0  0  0
   -2.1018   28.3231    1.2850 N   0  0  0  0  0  0  0  0  0  0  0  0
   -2.7324   28.8957    0.2006 C   0  0  0  0  0  0  0  0  0  0  0  0
   -3.9852   29.3748    0.2345 C   0  0  0  0  0  0  0  0  0  0  0  0
   -4.7266   29.3204    1.3808 N   0  0  0  0  0  0  0  0  0  0  0  0
   -4.1490   26.6913    4.8452 C   0  0  0  0  0  0  0  0  0  0  0  0
   -3.0326   26.1556    5.5068 C   0  0  0  0  0  0  0  0  0  0  0  0
   -2.7519   24.7869    5.4477 C   0  0  0  0  0  0  0  0  0  0  0  0
   -3.5885   23.9292    4.7363 C   0  0  0  0  0  0  0  0  0  0  0  0
   -4.7083   24.4423    4.0898 C   0  0  0  0  0  0  0  0  0  0  0  0
   -5.7510   23.3870    3.2182 Cl  0  0  0  0  0  0  0  0  0  0  0  0
   -4.9920   25.8068    4.1458 C   0  0  0  0  0  0  0  0  0  0  0  0
  2  1  1  6
  2  3  1  0
  3  4  2  3
  4  5  1  0
  5  6  2  0
  6  7  1  0
  7  8  2  0
  8  9  1  0
  2 10  1  0
 10 11  2  0
 11 12  1  0
 12 13  2  0
 13 14  1  0
 14 15  1  0
 14 16  2  0
  9  4  1  0
 16 10  1  0
M  END
>  <Energy>  (793) 
76.02274583920628

>  <Energy_Delta>  (793) 
7.247820352229482

>  <std_smi>  (793) 
CC(Nc1cnccn1)c1cccc(Cl)c1

>  <enum_smi>  (793) 
CC(N=c1cncc[nH]1)c1cccc(Cl)c1

>  <enum_code>  (793) 
T

>  <parent_uuid>  (793) 
6620cc01-fc2b-4cc4-81f0-045e40704b17

>  <o3da_score>  (793) 
69.783317883025731

>  <o3da_score_rel>  (793) 
0.27781752772081714

>  <o3da_align>  (793) 
0.41535415370674739

>  <RMSD>  (793) 
6.736242603128677e-05

>  <CONVERGED>  (793) 
0

>  <ENERGY>  (793) 
76.022745823431521

$$$$
05f50ff2-74b2-4de9-a541-dc10b52fd865
     RDKit          3D

 16 17  0  0  0  0  0  0  0  0999 V2000
   -3.7494   29.8013    6.2711 C   0  0  0  0  0  0  0  0  0  0  0  0
   -3.4990   28.8222    5.1192 C   0  0  1  0  0  0  0  0  0  0  0  0
   -4.6941   27.9968    4.9093 N   0  0  0  0  0  0  0  0  0  0  0  0
   -5.7883   28.3953    4.3586 C   0  0  0  0  0  0  0  0  0  0  0  0
   -6.0571   29.8025    3.8174 C   0  0  0  0  0  0  0  0  0  0  0  0
   -7.1938   30.1547    3.2801 N   0  0  0  0  0  0  0  0  0  0  0  0
   -8.1754   29.1892    3.2045 C   0  0  0  0  0  0  0  0  0  0  0  0
   -8.0204   27.9328    3.6488 C   0  0  0  0  0  0  0  0  0  0  0  0
   -6.8456   27.5297    4.2181 N   0  0  0  0  0  0  0  0  0  0  0  0
   -2.8778   29.3729    3.8441 C   0  0  0  0  0  0  0  0  0  0  0  0
   -2.7440   28.5253    2.7283 C   0  0  0  0  0  0  0  0  0  0  0  0
   -2.1666   28.9776    1.5398 C   0  0  0  0  0  0  0  0  0  0  0  0
   -1.6995   30.2860    1.4483 C   0  0  0  0  0  0  0  0  0  0  0  0
   -1.8080   31.1317    2.5484 C   0  0  0  0  0  0  0  0  0  0  0  0
   -1.2221   32.7471    2.4421 Cl  0  0  0  0  0  0  0  0  0  0  0  0
   -2.3859   30.6836    3.7392 C   0  0  0  0  0  0  0  0  0  0  0  0
  2  1  1  1
  2  3  1  0
  3  4  2  3
  4  5  1  0
  5  6  2  0
  6  7  1  0
  7  8  2  0
  8  9  1  0
  2 10  1  0
 10 11  2  0
 11 12  1  0
 12 13  2  0
 13 14  1  0
 14 15  1  0
 14 16  2  0
  9  4  1  0
 16 10  1  0
M  END
>  <Energy>  (794) 
76.171330840817063

>  <Energy_Delta>  (794) 
7.3964053538402652

>  <std_smi>  (794) 
CC(Nc1cnccn1)c1cccc(Cl)c1

>  <enum_smi>  (794) 
CC(N=c1cncc[nH]1)c1cccc(Cl)c1

>  <enum_code>  (794) 
T

>  <parent_uuid>  (794) 
6620cc01-fc2b-4cc4-81f0-045e40704b17

>  <o3da_score>  (794) 
70.779695705812969

>  <o3da_score_rel>  (794) 
0.28178425260292445

>  <o3da_align>  (794) 
0.33857148256965391

>  <RMSD>  (794) 
0.00052497681395113167

>  <CONVERGED>  (794) 
0

>  <ENERGY>  (794) 
76.171326442343116

$$$$
cd75a308-7f1f-48ff-9dc1-7457b096c2ff
     RDKit          3D

 16 17  0  0  0  0  0  0  0  0999 V2000
   -5.4404   28.2565    6.2496 C   0  0  0  0  0  0  0  0  0  0  0  0
   -4.4884   28.0482    5.0697 C   0  0  2  0  0  0  0  0  0  0  0  0
   -5.1085   28.6683    3.8928 N   0  0  0  0  0  0  0  0  0  0  0  0
   -4.3896   28.8590    2.8434 C   0  0  0  0  0  0  0  0  0  0  0  0
   -5.1043   29.5496    1.6777 C   0  0  0  0  0  0  0  0  0  0  0  0
   -4.5370   29.7815    0.5272 N   0  0  0  0  0  0  0  0  0  0  0  0
   -3.2303   29.3652    0.3860 C   0  0  0  0  0  0  0  0  0  0  0  0
   -2.5270   28.7681    1.3605 C   0  0  0  0  0  0  0  0  0  0  0  0
   -3.0752   28.5354    2.5945 N   0  0  0  0  0  0  0  0  0  0  0  0
   -4.1934   26.5678    4.8996 C   0  0  0  0  0  0  0  0  0  0  0  0
   -3.0347   26.0123    5.4663 C   0  0  0  0  0  0  0  0  0  0  0  0
   -2.7525   24.6525    5.3198 C   0  0  0  0  0  0  0  0  0  0  0  0
   -3.6275   23.8305    4.6106 C   0  0  0  0  0  0  0  0  0  0  0  0
   -4.7852   24.3702    4.0546 C   0  0  0  0  0  0  0  0  0  0  0  0
   -5.8676   23.3539    3.1852 Cl  0  0  0  0  0  0  0  0  0  0  0  0
   -5.0725   25.7269    4.1983 C   0  0  0  0  0  0  0  0  0  0  0  0
  2  1  1  1
  2  3  1  0
  3  4  2  3
  4  5  1  0
  5  6  2  0
  6  7  1  0
  7  8  2  0
  8  9  1  0
  2 10  1  0
 10 11  2  0
 11 12  1  0
 12 13  2  0
 13 14  1  0
 14 15  1  0
 14 16  2  0
  9  4  1  0
 16 10  1  0
M  END
>  <Energy>  (795) 
68.870296454791671

>  <Energy_Delta>  (795) 
0

>  <std_smi>  (795) 
CC(Nc1cnccn1)c1cccc(Cl)c1

>  <enum_smi>  (795) 
C[C@H](N=c1cncc[nH]1)c1cccc(Cl)c1

>  <enum_code>  (795) 
T

>  <parent_uuid>  (795) 
6620cc01-fc2b-4cc4-81f0-045e40704b17

>  <o3da_score>  (795) 
66.175663310810052

>  <o3da_score_rel>  (795) 
0.26345493069148535

>  <o3da_align>  (795) 
0.54884963015813337

>  <RMSD>  (795) 
7.4842930069457755e-05

>  <CONVERGED>  (795) 
0

>  <ENERGY>  (795) 
68.870296454893278

$$$$
cd75a308-7f1f-48ff-9dc1-7457b096c2ff
     RDKit          3D

 16 17  0  0  0  0  0  0  0  0999 V2000
   -2.8132   28.3026    5.9543 C   0  0  0  0  0  0  0  0  0  0  0  0
   -3.6907   29.0102    4.9201 C   0  0  2  0  0  0  0  0  0  0  0  0
   -4.7617   28.1035    4.4977 N   0  0  0  0  0  0  0  0  0  0  0  0
   -5.8554   28.0526    5.1688 C   0  0  0  0  0  0  0  0  0  0  0  0
   -6.9078   27.0824    4.6204 C   0  0  0  0  0  0  0  0  0  0  0  0
   -8.0683   26.8925    5.1827 N   0  0  0  0  0  0  0  0  0  0  0  0
   -8.3303   27.6187    6.3245 C   0  0  0  0  0  0  0  0  0  0  0  0
   -7.4685   28.4916    6.8685 C   0  0  0  0  0  0  0  0  0  0  0  0
   -6.2400   28.7232    6.3076 N   0  0  0  0  0  0  0  0  0  0  0  0
   -2.8438   29.4462    3.7346 C   0  0  0  0  0  0  0  0  0  0  0  0
   -2.4800   28.5386    2.7261 C   0  0  0  0  0  0  0  0  0  0  0  0
   -1.6856   28.9427    1.6508 C   0  0  0  0  0  0  0  0  0  0  0  0
   -1.2392   30.2606    1.5709 C   0  0  0  0  0  0  0  0  0  0  0  0
   -1.5895   31.1678    2.5679 C   0  0  0  0  0  0  0  0  0  0  0  0
   -1.0354   32.7951    2.4744 Cl  0  0  0  0  0  0  0  0  0  0  0  0
   -2.3833   30.7695    3.6446 C   0  0  0  0  0  0  0  0  0  0  0  0
  2  1  1  1
  2  3  1  0
  3  4  2  3
  4  5  1  0
  5  6  2  0
  6  7  1  0
  7  8  2  0
  8  9  1  0
  2 10  1  0
 10 11  2  0
 11 12  1  0
 12 13  2  0
 13 14  1  0
 14 15  1  0
 14 16  2  0
  9  4  1  0
 16 10  1  0
M  END
>  <Energy>  (796) 
71.130489536508861

>  <Energy_Delta>  (796) 
2.2601930817171905

>  <std_smi>  (796) 
CC(Nc1cnccn1)c1cccc(Cl)c1

>  <enum_smi>  (796) 
C[C@H](N=c1cncc[nH]1)c1cccc(Cl)c1

>  <enum_code>  (796) 
T

>  <parent_uuid>  (796) 
6620cc01-fc2b-4cc4-81f0-045e40704b17

>  <o3da_score>  (796) 
71.173030951045661

>  <o3da_score_rel>  (796) 
0.28335017736418588

>  <o3da_align>  (796) 
0.29391310880223243

>  <RMSD>  (796) 
6.7926285846730847e-05

>  <CONVERGED>  (796) 
0

>  <ENERGY>  (796) 
71.130489485769417

$$$$
cd75a308-7f1f-48ff-9dc1-7457b096c2ff
     RDKit          3D

 16 17  0  0  0  0  0  0  0  0999 V2000
   -5.7033   28.8220    4.6258 C   0  0  0  0  0  0  0  0  0  0  0  0
   -4.3526   28.1118    4.7347 C   0  0  2  0  0  0  0  0  0  0  0  0
   -3.6483   28.2180    3.4544 N   0  0  0  0  0  0  0  0  0  0  0  0
   -2.9221   29.2483    3.2089 C   0  0  0  0  0  0  0  0  0  0  0  0
   -2.2196   29.2371    1.8465 C   0  0  0  0  0  0  0  0  0  0  0  0
   -1.4570   30.2074    1.4269 N   0  0  0  0  0  0  0  0  0  0  0  0
   -1.2945   31.2805    2.2765 C   0  0  0  0  0  0  0  0  0  0  0  0
   -1.8679   31.3684    3.4865 C   0  0  0  0  0  0  0  0  0  0  0  0
   -2.6726   30.3692    3.9676 N   0  0  0  0  0  0  0  0  0  0  0  0
   -4.5628   26.6561    5.1212 C   0  0  0  0  0  0  0  0  0  0  0  0
   -4.4064   26.2477    6.4557 C   0  0  0  0  0  0  0  0  0  0  0  0
   -4.6153   24.9162    6.8235 C   0  0  0  0  0  0  0  0  0  0  0  0
   -4.9871   23.9765    5.8630 C   0  0  0  0  0  0  0  0  0  0  0  0
   -5.1496   24.3719    4.5374 C   0  0  0  0  0  0  0  0  0  0  0  0
   -5.6130   23.2129    3.3524 Cl  0  0  0  0  0  0  0  0  0  0  0  0
   -4.9427   25.6996    4.1649 C   0  0  0  0  0  0  0  0  0  0  0  0
  2  1  1  6
  2  3  1  0
  3  4  2  3
  4  5  1  0
  5  6  2  0
  6  7  1  0
  7  8  2  0
  8  9  1  0
  2 10  1  0
 10 11  2  0
 11 12  1  0
 12 13  2  0
 13 14  1  0
 14 15  1  0
 14 16  2  0
  9  4  1  0
 16 10  1  0
M  END
>  <Energy>  (797) 
71.186498447361686

>  <Energy_Delta>  (797) 
2.316201992570015

>  <std_smi>  (797) 
CC(Nc1cnccn1)c1cccc(Cl)c1

>  <enum_smi>  (797) 
C[C@H](N=c1cncc[nH]1)c1cccc(Cl)c1

>  <enum_code>  (797) 
T

>  <parent_uuid>  (797) 
6620cc01-fc2b-4cc4-81f0-045e40704b17

>  <o3da_score>  (797) 
69.197638405916123

>  <o3da_score_rel>  (797) 
0.27548585262562952

>  <o3da_align>  (797) 
0.47800773423451715

>  <RMSD>  (797) 
6.5422336144037232e-05

>  <CONVERGED>  (797) 
0

>  <ENERGY>  (797) 
71.186498370147149

$$$$
cd75a308-7f1f-48ff-9dc1-7457b096c2ff
     RDKit          3D

 16 17  0  0  0  0  0  0  0  0999 V2000
   -5.3682   28.2812    6.2453 C   0  0  0  0  0  0  0  0  0  0  0  0
   -4.4418   28.0417    5.0493 C   0  0  2  0  0  0  0  0  0  0  0  0
   -5.0951   28.6224    3.8741 N   0  0  0  0  0  0  0  0  0  0  0  0
   -4.4400   28.8800    2.7923 C   0  0  0  0  0  0  0  0  0  0  0  0
   -2.9427   28.6225    2.5860 C   0  0  0  0  0  0  0  0  0  0  0  0
   -2.3168   28.9114    1.4776 N   0  0  0  0  0  0  0  0  0  0  0  0
   -3.0694   29.4622    0.4613 C   0  0  0  0  0  0  0  0  0  0  0  0
   -4.3843   29.7124    0.5575 C   0  0  0  0  0  0  0  0  0  0  0  0
   -5.0714   29.4292    1.7042 N   0  0  0  0  0  0  0  0  0  0  0  0
   -4.1654   26.5551    4.9091 C   0  0  0  0  0  0  0  0  0  0  0  0
   -3.0016   25.9991    5.4641 C   0  0  0  0  0  0  0  0  0  0  0  0
   -2.7398   24.6321    5.3480 C   0  0  0  0  0  0  0  0  0  0  0  0
   -3.6410   23.8025    4.6820 C   0  0  0  0  0  0  0  0  0  0  0  0
   -4.8037   24.3425    4.1376 C   0  0  0  0  0  0  0  0  0  0  0  0
   -5.9200   23.3180    3.3215 Cl  0  0  0  0  0  0  0  0  0  0  0  0
   -5.0702   25.7064    4.2505 C   0  0  0  0  0  0  0  0  0  0  0  0
  2  1  1  1
  2  3  1  0
  3  4  2  3
  4  5  1  0
  5  6  2  0
  6  7  1  0
  7  8  2  0
  8  9  1  0
  2 10  1  0
 10 11  2  0
 11 12  1  0
 12 13  2  0
 13 14  1  0
 14 15  1  0
 14 16  2  0
  9  4  1  0
 16 10  1  0
M  END
>  <Energy>  (798) 
71.491421849171147

>  <Energy_Delta>  (798) 
2.6211253943794759

>  <std_smi>  (798) 
CC(Nc1cnccn1)c1cccc(Cl)c1

>  <enum_smi>  (798) 
C[C@H](N=c1cncc[nH]1)c1cccc(Cl)c1

>  <enum_code>  (798) 
T

>  <parent_uuid>  (798) 
6620cc01-fc2b-4cc4-81f0-045e40704b17

>  <o3da_score>  (798) 
68.074027108366025

>  <o3da_score_rel>  (798) 
0.27101259279399176

>  <o3da_align>  (798) 
0.50294053331330357

>  <RMSD>  (798) 
7.1028732197415395e-05

>  <CONVERGED>  (798) 
0

>  <ENERGY>  (798) 
71.491421816117978

$$$$
cd75a308-7f1f-48ff-9dc1-7457b096c2ff
     RDKit          3D

 16 17  0  0  0  0  0  0  0  0999 V2000
   -2.5326   28.1742    5.9700 C   0  0  0  0  0  0  0  0  0  0  0  0
   -3.5591   28.9006    5.0955 C   0  0  2  0  0  0  0  0  0  0  0  0
   -4.6651   27.9683    4.8646 N   0  0  0  0  0  0  0  0  0  0  0  0
   -5.8196   28.3750    4.4550 C   0  0  0  0  0  0  0  0  0  0  0  0
   -6.1854   29.8332    4.1542 C   0  0  0  0  0  0  0  0  0  0  0  0
   -7.3745   30.2019    3.7623 N   0  0  0  0  0  0  0  0  0  0  0  0
   -8.3189   29.2078    3.6124 C   0  0  0  0  0  0  0  0  0  0  0  0
   -8.0777   27.9082    3.8435 C   0  0  0  0  0  0  0  0  0  0  0  0
   -6.8454   27.4848    4.2553 N   0  0  0  0  0  0  0  0  0  0  0  0
   -2.8920   29.3750    3.8163 C   0  0  0  0  0  0  0  0  0  0  0  0
   -2.7370   28.5203    2.7130 C   0  0  0  0  0  0  0  0  0  0  0  0
   -2.1130   28.9655    1.5458 C   0  0  0  0  0  0  0  0  0  0  0  0
   -1.6280   30.2700    1.4684 C   0  0  0  0  0  0  0  0  0  0  0  0
   -1.7661   31.1224    2.5611 C   0  0  0  0  0  0  0  0  0  0  0  0
   -1.1611   32.7310    2.4711 Cl  0  0  0  0  0  0  0  0  0  0  0  0
   -2.3896   30.6833    3.7298 C   0  0  0  0  0  0  0  0  0  0  0  0
  2  1  1  1
  2  3  1  0
  3  4  2  3
  4  5  1  0
  5  6  2  0
  6  7  1  0
  7  8  2  0
  8  9  1  0
  2 10  1  0
 10 11  2  0
 11 12  1  0
 12 13  2  0
 13 14  1  0
 14 15  1  0
 14 16  2  0
  9  4  1  0
 16 10  1  0
M  END
>  <Energy>  (799) 
71.66725959989688

>  <Energy_Delta>  (799) 
2.7969631451052095

>  <std_smi>  (799) 
CC(Nc1cnccn1)c1cccc(Cl)c1

>  <enum_smi>  (799) 
C[C@H](N=c1cncc[nH]1)c1cccc(Cl)c1

>  <enum_code>  (799) 
T

>  <parent_uuid>  (799) 
6620cc01-fc2b-4cc4-81f0-045e40704b17

>  <o3da_score>  (799) 
71.820539516912703

>  <o3da_score_rel>  (799) 
0.28592800304522858

>  <o3da_align>  (799) 
0.29418283248188426

>  <RMSD>  (799) 
8.1015320786762668e-05

>  <CONVERGED>  (799) 
0

>  <ENERGY>  (799) 
71.667259571468676

$$$$
cd75a308-7f1f-48ff-9dc1-7457b096c2ff
     RDKit          3D

 16 17  0  0  0  0  0  0  0  0999 V2000
   -6.0306   28.5237    4.6405 C   0  0  0  0  0  0  0  0  0  0  0  0
   -4.6779   28.0540    5.1875 C   0  0  2  0  0  0  0  0  0  0  0  0
   -3.6406   29.0180    4.7887 N   0  0  0  0  0  0  0  0  0  0  0  0
   -3.1933   29.0741    3.5868 C   0  0  0  0  0  0  0  0  0  0  0  0
   -2.1357   30.1569    3.3416 C   0  0  0  0  0  0  0  0  0  0  0  0
   -1.5439   30.3351    2.1939 N   0  0  0  0  0  0  0  0  0  0  0  0
   -1.9107   29.4874    1.1705 C   0  0  0  0  0  0  0  0  0  0  0  0
   -2.8373   28.5250    1.2945 C   0  0  0  0  0  0  0  0  0  0  0  0
   -3.4995   28.3227    2.4764 N   0  0  0  0  0  0  0  0  0  0  0  0
   -4.3066   26.5963    4.9483 C   0  0  0  0  0  0  0  0  0  0  0  0
   -3.0439   26.1406    5.3711 C   0  0  0  0  0  0  0  0  0  0  0  0
   -2.6515   24.8139    5.1809 C   0  0  0  0  0  0  0  0  0  0  0  0
   -3.5203   23.9132    4.5708 C   0  0  0  0  0  0  0  0  0  0  0  0
   -4.7782   24.3446    4.1600 C   0  0  0  0  0  0  0  0  0  0  0  0
   -5.8562   23.2338    3.4067 Cl  0  0  0  0  0  0  0  0  0  0  0  0
   -5.1753   25.6713    4.3482 C   0  0  0  0  0  0  0  0  0  0  0  0
  2  1  1  6
  2  3  1  0
  3  4  2  3
  4  5  1  0
  5  6  2  0
  6  7  1  0
  7  8  2  0
  8  9  1  0
  2 10  1  0
 10 11  2  0
 11 12  1  0
 12 13  2  0
 13 14  1  0
 14 15  1  0
 14 16  2  0
  9  4  1  0
 16 10  1  0
M  END
>  <Energy>  (800) 
71.96188004962174

>  <Energy_Delta>  (800) 
3.0915835948300696

>  <std_smi>  (800) 
CC(Nc1cnccn1)c1cccc(Cl)c1

>  <enum_smi>  (800) 
C[C@H](N=c1cncc[nH]1)c1cccc(Cl)c1

>  <enum_code>  (800) 
T

>  <parent_uuid>  (800) 
6620cc01-fc2b-4cc4-81f0-045e40704b17

>  <o3da_score>  (800) 
89.855150461055501

>  <o3da_score_rel>  (800) 
0.35772640956850554

>  <o3da_align>  (800) 
0.3945743603940261

>  <RMSD>  (800) 
8.6281835831909499e-05

>  <CONVERGED>  (800) 
0

>  <ENERGY>  (800) 
71.961879925306604

$$$$
cd75a308-7f1f-48ff-9dc1-7457b096c2ff
     RDKit          3D

 16 17  0  0  0  0  0  0  0  0999 V2000
   -6.0475   28.5779    4.4102 C   0  0  0  0  0  0  0  0  0  0  0  0
   -4.7629   28.1044    5.0995 C   0  0  2  0  0  0  0  0  0  0  0  0
   -3.7250   29.1330    4.9305 N   0  0  0  0  0  0  0  0  0  0  0  0
   -3.1175   29.3069    3.8132 C   0  0  0  0  0  0  0  0  0  0  0  0
   -2.0891   30.4441    3.8071 C   0  0  0  0  0  0  0  0  0  0  0  0
   -1.3533   30.7402    2.7726 N   0  0  0  0  0  0  0  0  0  0  0  0
   -1.5312   29.9673    1.6451 C   0  0  0  0  0  0  0  0  0  0  0  0
   -2.4186   28.9646    1.5601 C   0  0  0  0  0  0  0  0  0  0  0  0
   -3.2307   28.6414    2.6149 N   0  0  0  0  0  0  0  0  0  0  0  0
   -4.2997   26.6864    4.7913 C   0  0  0  0  0  0  0  0  0  0  0  0
   -5.0414   25.7895    4.0058 C   0  0  0  0  0  0  0  0  0  0  0  0
   -4.5712   24.4963    3.7568 C   0  0  0  0  0  0  0  0  0  0  0  0
   -3.3568   24.0758    4.2956 C   0  0  0  0  0  0  0  0  0  0  0  0
   -2.6177   24.9483    5.0882 C   0  0  0  0  0  0  0  0  0  0  0  0
   -1.1212   24.4312    5.7611 Cl  0  0  0  0  0  0  0  0  0  0  0  0
   -3.0830   26.2386    5.3397 C   0  0  0  0  0  0  0  0  0  0  0  0
  2  1  1  6
  2  3  1  0
  3  4  2  3
  4  5  1  0
  5  6  2  0
  6  7  1  0
  7  8  2  0
  8  9  1  0
  2 10  1  0
 10 11  2  0
 11 12  1  0
 12 13  2  0
 13 14  1  0
 14 15  1  0
 14 16  2  0
  9  4  1  0
 16 10  1  0
M  END
>  <Energy>  (801) 
72.026398239659343

>  <Energy_Delta>  (801) 
3.1561017848676727

>  <std_smi>  (801) 
CC(Nc1cnccn1)c1cccc(Cl)c1

>  <enum_smi>  (801) 
C[C@H](N=c1cncc[nH]1)c1cccc(Cl)c1

>  <enum_code>  (801) 
T

>  <parent_uuid>  (801) 
6620cc01-fc2b-4cc4-81f0-045e40704b17

>  <o3da_score>  (801) 
100.78501378515845

>  <o3da_score_rel>  (801) 
0.40123978352585538

>  <o3da_align>  (801) 
0.46745648602986561

>  <RMSD>  (801) 
7.6361715496572021e-05

>  <CONVERGED>  (801) 
0

>  <ENERGY>  (801) 
72.026398209427498

$$$$
cd75a308-7f1f-48ff-9dc1-7457b096c2ff
     RDKit          3D

 16 17  0  0  0  0  0  0  0  0999 V2000
   -2.7713   28.2861    5.9073 C   0  0  0  0  0  0  0  0  0  0  0  0
   -3.6704   29.0210    4.9114 C   0  0  2  0  0  0  0  0  0  0  0  0
   -4.7544   28.1325    4.4910 N   0  0  0  0  0  0  0  0  0  0  0  0
   -5.8511   28.0087    5.1569 C   0  0  0  0  0  0  0  0  0  0  0  0
   -6.1703   28.7286    6.4719 C   0  0  0  0  0  0  0  0  0  0  0  0
   -7.3097   28.6019    7.0954 N   0  0  0  0  0  0  0  0  0  0  0  0
   -8.2462   27.7684    6.5197 C   0  0  0  0  0  0  0  0  0  0  0  0
   -8.0387   27.0850    5.3836 C   0  0  0  0  0  0  0  0  0  0  0  0
   -6.8534   27.1839    4.7107 N   0  0  0  0  0  0  0  0  0  0  0  0
   -2.8453   29.4708    3.7138 C   0  0  0  0  0  0  0  0  0  0  0  0
   -2.3710   30.7905    3.6367 C   0  0  0  0  0  0  0  0  0  0  0  0
   -1.5977   31.2086    2.5509 C   0  0  0  0  0  0  0  0  0  0  0  0
   -1.2850   30.3121    1.5299 C   0  0  0  0  0  0  0  0  0  0  0  0
   -1.7458   28.9995    1.5992 C   0  0  0  0  0  0  0  0  0  0  0  0
   -1.3568   27.8912    0.3409 Cl  0  0  0  0  0  0  0  0  0  0  0  0
   -2.5172   28.5766    2.6810 C   0  0  0  0  0  0  0  0  0  0  0  0
  2  1  1  1
  2  3  1  0
  3  4  2  3
  4  5  1  0
  5  6  2  0
  6  7  1  0
  7  8  2  0
  8  9  1  0
  2 10  1  0
 10 11  2  0
 11 12  1  0
 12 13  2  0
 13 14  1  0
 14 15  1  0
 14 16  2  0
  9  4  1  0
 16 10  1  0
M  END
>  <Energy>  (802) 
73.471092422660092

>  <Energy_Delta>  (802) 
4.6007959678684216

>  <std_smi>  (802) 
CC(Nc1cnccn1)c1cccc(Cl)c1

>  <enum_smi>  (802) 
C[C@H](N=c1cncc[nH]1)c1cccc(Cl)c1

>  <enum_code>  (802) 
T

>  <parent_uuid>  (802) 
6620cc01-fc2b-4cc4-81f0-045e40704b17

>  <o3da_score>  (802) 
68.272366553139406

>  <o3da_score_rel>  (802) 
0.2718022109415385

>  <o3da_align>  (802) 
0.29149723173104675

>  <RMSD>  (802) 
7.5491018017438127e-05

>  <CONVERGED>  (802) 
0

>  <ENERGY>  (802) 
73.471092418308871

$$$$
cd75a308-7f1f-48ff-9dc1-7457b096c2ff
     RDKit          3D

 16 17  0  0  0  0  0  0  0  0999 V2000
   -2.8251   28.3025    5.9767 C   0  0  0  0  0  0  0  0  0  0  0  0
   -3.6916   29.0154    4.9367 C   0  0  2  0  0  0  0  0  0  0  0  0
   -4.7675   28.1208    4.5074 N   0  0  0  0  0  0  0  0  0  0  0  0
   -5.8831   28.0195    5.1457 C   0  0  0  0  0  0  0  0  0  0  0  0
   -6.2348   28.7734    6.4332 C   0  0  0  0  0  0  0  0  0  0  0  0
   -7.3917   28.6673    7.0275 N   0  0  0  0  0  0  0  0  0  0  0  0
   -8.3168   27.8251    6.4462 C   0  0  0  0  0  0  0  0  0  0  0  0
   -8.0816   27.1130    5.3334 C   0  0  0  0  0  0  0  0  0  0  0  0
   -6.8772   27.1886    4.6922 N   0  0  0  0  0  0  0  0  0  0  0  0
   -2.8300   29.4324    3.7529 C   0  0  0  0  0  0  0  0  0  0  0  0
   -2.4586   28.5095    2.7610 C   0  0  0  0  0  0  0  0  0  0  0  0
   -1.6515   28.8959    1.6888 C   0  0  0  0  0  0  0  0  0  0  0  0
   -1.2001   30.2113    1.5952 C   0  0  0  0  0  0  0  0  0  0  0  0
   -1.5579   31.1336    2.5755 C   0  0  0  0  0  0  0  0  0  0  0  0
   -0.9977   32.7576    2.4642 Cl  0  0  0  0  0  0  0  0  0  0  0  0
   -2.3642   30.7530    3.6494 C   0  0  0  0  0  0  0  0  0  0  0  0
  2  1  1  1
  2  3  1  0
  3  4  2  3
  4  5  1  0
  5  6  2  0
  6  7  1  0
  7  8  2  0
  8  9  1  0
  2 10  1  0
 10 11  2  0
 11 12  1  0
 12 13  2  0
 13 14  1  0
 14 15  1  0
 14 16  2  0
  9  4  1  0
 16 10  1  0
M  END
>  <Energy>  (803) 
73.650379103965477

>  <Energy_Delta>  (803) 
4.7800826491738064

>  <std_smi>  (803) 
CC(Nc1cnccn1)c1cccc(Cl)c1

>  <enum_smi>  (803) 
C[C@H](N=c1cncc[nH]1)c1cccc(Cl)c1

>  <enum_code>  (803) 
T

>  <parent_uuid>  (803) 
6620cc01-fc2b-4cc4-81f0-045e40704b17

>  <o3da_score>  (803) 
71.000032636679947

>  <o3da_score_rel>  (803) 
0.28266144593875386

>  <o3da_align>  (803) 
0.30526453388670649

>  <RMSD>  (803) 
7.4469843768455368e-05

>  <CONVERGED>  (803) 
0

>  <ENERGY>  (803) 
73.6503790868463

$$$$
cd75a308-7f1f-48ff-9dc1-7457b096c2ff
     RDKit          3D

 16 17  0  0  0  0  0  0  0  0999 V2000
   -5.9977   28.5966    4.3163 C   0  0  0  0  0  0  0  0  0  0  0  0
   -4.7441   28.0898    5.0368 C   0  0  2  0  0  0  0  0  0  0  0  0
   -3.6807   29.0961    4.9399 N   0  0  0  0  0  0  0  0  0  0  0  0
   -2.9903   29.3532    3.8832 C   0  0  0  0  0  0  0  0  0  0  0  0
   -3.1458   28.6651    2.5239 C   0  0  0  0  0  0  0  0  0  0  0  0
   -2.4216   28.9719    1.4817 N   0  0  0  0  0  0  0  0  0  0  0  0
   -1.4739   29.9596    1.6486 C   0  0  0  0  0  0  0  0  0  0  0  0
   -1.2709   30.6098    2.8044 C   0  0  0  0  0  0  0  0  0  0  0  0
   -2.0155   30.3203    3.9127 N   0  0  0  0  0  0  0  0  0  0  0  0
   -4.2915   26.6652    4.7546 C   0  0  0  0  0  0  0  0  0  0  0  0
   -5.0391   25.7637    3.9805 C   0  0  0  0  0  0  0  0  0  0  0  0
   -4.5867   24.4586    3.7617 C   0  0  0  0  0  0  0  0  0  0  0  0
   -3.3854   24.0293    4.3226 C   0  0  0  0  0  0  0  0  0  0  0  0
   -2.6419   24.9057    5.1064 C   0  0  0  0  0  0  0  0  0  0  0  0
   -1.1628   24.3786    5.8102 Cl  0  0  0  0  0  0  0  0  0  0  0  0
   -3.0891   26.2082    5.3269 C   0  0  0  0  0  0  0  0  0  0  0  0
  2  1  1  6
  2  3  1  0
  3  4  2  3
  4  5  1  0
  5  6  2  0
  6  7  1  0
  7  8  2  0
  8  9  1  0
  2 10  1  0
 10 11  2  0
 11 12  1  0
 12 13  2  0
 13 14  1  0
 14 15  1  0
 14 16  2  0
  9  4  1  0
 16 10  1  0
M  END
>  <Energy>  (804) 
76.022745846458491

>  <Energy_Delta>  (804) 
7.1524493916668206

>  <std_smi>  (804) 
CC(Nc1cnccn1)c1cccc(Cl)c1

>  <enum_smi>  (804) 
C[C@H](N=c1cncc[nH]1)c1cccc(Cl)c1

>  <enum_code>  (804) 
T

>  <parent_uuid>  (804) 
6620cc01-fc2b-4cc4-81f0-045e40704b17

>  <o3da_score>  (804) 
98.453345209619542

>  <o3da_score_rel>  (804) 
0.39195707214480041

>  <o3da_align>  (804) 
0.47631944311073293

>  <RMSD>  (804) 
6.9949752027442046e-05

>  <CONVERGED>  (804) 
0

>  <ENERGY>  (804) 
76.022745823089068

$$$$
2c23a7fb-19d0-42d5-a64a-aa57c178b891
     RDKit          3D

 16 17  0  0  0  0  0  0  0  0999 V2000
   -5.9517   28.2939    5.6064 C   0  0  0  0  0  0  0  0  0  0  0  0
   -4.9626   28.0643    4.4615 C   0  0  1  0  0  0  0  0  0  0  0  0
   -3.9447   29.1186    4.5444 N   0  0  0  0  0  0  0  0  0  0  0  0
   -3.1657   29.3052    3.5381 C   0  0  0  0  0  0  0  0  0  0  0  0
   -2.1593   30.4495    3.6944 C   0  0  0  0  0  0  0  0  0  0  0  0
   -1.2685   30.7476    2.7907 N   0  0  0  0  0  0  0  0  0  0  0  0
   -1.2587   29.9714    1.6512 C   0  0  0  0  0  0  0  0  0  0  0  0
   -2.1148   28.9624    1.4273 C   0  0  0  0  0  0  0  0  0  0  0  0
   -3.0843   28.6354    2.3386 N   0  0  0  0  0  0  0  0  0  0  0  0
   -4.3949   26.6577    4.5437 C   0  0  0  0  0  0  0  0  0  0  0  0
   -3.3229   26.3527    5.3973 C   0  0  0  0  0  0  0  0  0  0  0  0
   -2.8112   25.0554    5.4660 C   0  0  0  0  0  0  0  0  0  0  0  0
   -3.3693   24.0434    4.6866 C   0  0  0  0  0  0  0  0  0  0  0  0
   -4.4404   24.3332    3.8452 C   0  0  0  0  0  0  0  0  0  0  0  0
   -5.1337   23.0857    2.8835 Cl  0  0  0  0  0  0  0  0  0  0  0  0
   -4.9562   25.6278    3.7721 C   0  0  0  0  0  0  0  0  0  0  0  0
  2  1  1  1
  2  3  1  0
  3  4  2  3
  4  5  1  0
  5  6  2  0
  6  7  1  0
  7  8  2  0
  8  9  1  0
  2 10  1  0
 10 11  2  0
 11 12  1  0
 12 13  2  0
 13 14  1  0
 14 15  1  0
 14 16  2  0
  9  4  1  0
 16 10  1  0
M  END
>  <Energy>  (805) 
68.774925515075097

>  <Energy_Delta>  (805) 
0

>  <std_smi>  (805) 
CC(Nc1cnccn1)c1cccc(Cl)c1

>  <enum_smi>  (805) 
C[C@@H](N=c1cncc[nH]1)c1cccc(Cl)c1

>  <enum_code>  (805) 
T

>  <parent_uuid>  (805) 
6620cc01-fc2b-4cc4-81f0-045e40704b17

>  <o3da_score>  (805) 
90.699419269754273

>  <o3da_score_rel>  (805) 
0.36108756636471379

>  <o3da_align>  (805) 
0.52486123632747494

>  <RMSD>  (805) 
9.0264027159190372e-05

>  <CONVERGED>  (805) 
0

>  <ENERGY>  (805) 
68.774925400457533

$$$$
2c23a7fb-19d0-42d5-a64a-aa57c178b891
     RDKit          3D

 16 17  0  0  0  0  0  0  0  0999 V2000
   -5.8898   28.2862    5.6350 C   0  0  0  0  0  0  0  0  0  0  0  0
   -4.9392   28.0358    4.4622 C   0  0  1  0  0  0  0  0  0  0  0  0
   -3.8915   29.0618    4.5218 N   0  0  0  0  0  0  0  0  0  0  0  0
   -3.1288   29.2270    3.4993 C   0  0  0  0  0  0  0  0  0  0  0  0
   -2.0915   30.3464    3.6310 C   0  0  0  0  0  0  0  0  0  0  0  0
   -1.2138   30.6207    2.7071 N   0  0  0  0  0  0  0  0  0  0  0  0
   -1.2459   29.8400    1.5712 C   0  0  0  0  0  0  0  0  0  0  0  0
   -2.1304   28.8514    1.3688 C   0  0  0  0  0  0  0  0  0  0  0  0
   -3.0897   28.5521    2.3003 N   0  0  0  0  0  0  0  0  0  0  0  0
   -4.4095   26.6134    4.5218 C   0  0  0  0  0  0  0  0  0  0  0  0
   -5.0266   25.6014    3.7686 C   0  0  0  0  0  0  0  0  0  0  0  0
   -4.5515   24.2890    3.8159 C   0  0  0  0  0  0  0  0  0  0  0  0
   -3.4581   23.9711    4.6207 C   0  0  0  0  0  0  0  0  0  0  0  0
   -2.8465   24.9660    5.3801 C   0  0  0  0  0  0  0  0  0  0  0  0
   -1.5014   24.5715    6.3779 Cl  0  0  0  0  0  0  0  0  0  0  0  0
   -3.3169   26.2777    5.3375 C   0  0  0  0  0  0  0  0  0  0  0  0
  2  1  1  1
  2  3  1  0
  3  4  2  3
  4  5  1  0
  5  6  2  0
  6  7  1  0
  7  8  2  0
  8  9  1  0
  2 10  1  0
 10 11  2  0
 11 12  1  0
 12 13  2  0
 13 14  1  0
 14 15  1  0
 14 16  2  0
  9  4  1  0
 16 10  1  0
M  END
>  <Energy>  (806) 
68.870296520807969

>  <Energy_Delta>  (806) 
0.09537100573287205

>  <std_smi>  (806) 
CC(Nc1cnccn1)c1cccc(Cl)c1

>  <enum_smi>  (806) 
C[C@@H](N=c1cncc[nH]1)c1cccc(Cl)c1

>  <enum_code>  (806) 
T

>  <parent_uuid>  (806) 
6620cc01-fc2b-4cc4-81f0-045e40704b17

>  <o3da_score>  (806) 
95.792172141719092

>  <o3da_score_rel>  (806) 
0.38136255550400938

>  <o3da_align>  (806) 
0.56131840886051387

>  <RMSD>  (806) 
7.1877567108390077e-05

>  <CONVERGED>  (806) 
0

>  <ENERGY>  (806) 
68.870296450172177

$$$$
2c23a7fb-19d0-42d5-a64a-aa57c178b891
     RDKit          3D

 16 17  0  0  0  0  0  0  0  0999 V2000
   -3.7017   29.2225    6.4166 C   0  0  0  0  0  0  0  0  0  0  0  0
   -3.4300   28.8512    4.9576 C   0  0  1  0  0  0  0  0  0  0  0  0
   -4.3929   27.8308    4.5342 N   0  0  0  0  0  0  0  0  0  0  0  0
   -4.1377   26.5892    4.7404 C   0  0  0  0  0  0  0  0  0  0  0  0
   -5.2092   25.6152    4.2375 C   0  0  0  0  0  0  0  0  0  0  0  0
   -5.1224   24.3219    4.3755 N   0  0  0  0  0  0  0  0  0  0  0  0
   -3.9962   23.8400    5.0075 C   0  0  0  0  0  0  0  0  0  0  0  0
   -3.0093   24.6210    5.4730 C   0  0  0  0  0  0  0  0  0  0  0  0
   -3.0597   25.9844    5.3456 N   0  0  0  0  0  0  0  0  0  0  0  0
   -3.5260   30.0907    4.0818 C   0  0  0  0  0  0  0  0  0  0  0  0
   -4.7696   30.5946    3.6661 C   0  0  0  0  0  0  0  0  0  0  0  0
   -4.8496   31.7448    2.8781 C   0  0  0  0  0  0  0  0  0  0  0  0
   -3.6861   32.4113    2.4977 C   0  0  0  0  0  0  0  0  0  0  0  0
   -2.4479   31.9237    2.9085 C   0  0  0  0  0  0  0  0  0  0  0  0
   -1.0093   32.7475    2.4445 Cl  0  0  0  0  0  0  0  0  0  0  0  0
   -2.3620   30.7745    3.6960 C   0  0  0  0  0  0  0  0  0  0  0  0
  2  1  1  1
  2  3  1  0
  3  4  2  3
  4  5  1  0
  5  6  2  0
  6  7  1  0
  7  8  2  0
  8  9  1  0
  2 10  1  0
 10 11  2  0
 11 12  1  0
 12 13  2  0
 13 14  1  0
 14 15  1  0
 14 16  2  0
  9  4  1  0
 16 10  1  0
M  END
>  <Energy>  (807) 
71.130489511385576

>  <Energy_Delta>  (807) 
2.3555639963104795

>  <std_smi>  (807) 
CC(Nc1cnccn1)c1cccc(Cl)c1

>  <enum_smi>  (807) 
C[C@@H](N=c1cncc[nH]1)c1cccc(Cl)c1

>  <enum_code>  (807) 
T

>  <parent_uuid>  (807) 
6620cc01-fc2b-4cc4-81f0-045e40704b17

>  <o3da_score>  (807) 
80.985602153399029

>  <o3da_score_rel>  (807) 
0.32241544904690994

>  <o3da_align>  (807) 
0.48966277242717265

>  <RMSD>  (807) 
7.2887488135695258e-05

>  <CONVERGED>  (807) 
0

>  <ENERGY>  (807) 
71.130489488054934

$$$$
2c23a7fb-19d0-42d5-a64a-aa57c178b891
     RDKit          3D

 16 17  0  0  0  0  0  0  0  0999 V2000
   -4.8909   28.5008    6.0967 C   0  0  0  0  0  0  0  0  0  0  0  0
   -4.4464   28.0356    4.7087 C   0  0  1  0  0  0  0  0  0  0  0  0
   -3.2271   28.7533    4.3281 N   0  0  0  0  0  0  0  0  0  0  0  0
   -3.3134   29.8996    3.7559 C   0  0  0  0  0  0  0  0  0  0  0  0
   -1.9721   30.5434    3.3873 C   0  0  0  0  0  0  0  0  0  0  0  0
   -1.8718   31.7105    2.8156 N   0  0  0  0  0  0  0  0  0  0  0  0
   -3.0505   32.3702    2.5412 C   0  0  0  0  0  0  0  0  0  0  0  0
   -4.2657   31.8772    2.8254 C   0  0  0  0  0  0  0  0  0  0  0  0
   -4.4160   30.6528    3.4216 N   0  0  0  0  0  0  0  0  0  0  0  0
   -4.2136   26.5329    4.7163 C   0  0  0  0  0  0  0  0  0  0  0  0
   -5.1996   25.6606    4.2271 C   0  0  0  0  0  0  0  0  0  0  0  0
   -5.0023   24.2777    4.2469 C   0  0  0  0  0  0  0  0  0  0  0  0
   -3.8187   23.7484    4.7597 C   0  0  0  0  0  0  0  0  0  0  0  0
   -2.8363   24.6044    5.2518 C   0  0  0  0  0  0  0  0  0  0  0  0
   -1.3771   23.9509    5.8891 Cl  0  0  0  0  0  0  0  0  0  0  0  0
   -3.0281   25.9854    5.2348 C   0  0  0  0  0  0  0  0  0  0  0  0
  2  1  1  1
  2  3  1  0
  3  4  2  3
  4  5  1  0
  5  6  2  0
  6  7  1  0
  7  8  2  0
  8  9  1  0
  2 10  1  0
 10 11  2  0
 11 12  1  0
 12 13  2  0
 13 14  1  0
 14 15  1  0
 14 16  2  0
  9  4  1  0
 16 10  1  0
M  END
>  <Energy>  (808) 
71.186498391341104

>  <Energy_Delta>  (808) 
2.4115728762660069

>  <std_smi>  (808) 
CC(Nc1cnccn1)c1cccc(Cl)c1

>  <enum_smi>  (808) 
C[C@@H](N=c1cncc[nH]1)c1cccc(Cl)c1

>  <enum_code>  (808) 
T

>  <parent_uuid>  (808) 
6620cc01-fc2b-4cc4-81f0-045e40704b17

>  <o3da_score>  (808) 
78.484275402215303

>  <o3da_score_rel>  (808) 
0.31245730381797926

>  <o3da_align>  (808) 
0.39278529820872765

>  <RMSD>  (808) 
6.8123493764149289e-05

>  <CONVERGED>  (808) 
0

>  <ENERGY>  (808) 
71.186498368238389

$$$$
2c23a7fb-19d0-42d5-a64a-aa57c178b891
     RDKit          3D

 16 17  0  0  0  0  0  0  0  0999 V2000
   -5.4717   28.2828    6.1854 C   0  0  0  0  0  0  0  0  0  0  0  0
   -4.6968   28.0956    4.8776 C   0  0  1  0  0  0  0  0  0  0  0  0
   -3.5758   29.0377    4.9013 N   0  0  0  0  0  0  0  0  0  0  0  0
   -2.9389   29.3609    3.8263 C   0  0  0  0  0  0  0  0  0  0  0  0
   -3.2479   28.8243    2.4237 C   0  0  0  0  0  0  0  0  0  0  0  0
   -2.5854   29.1894    1.3599 N   0  0  0  0  0  0  0  0  0  0  0  0
   -1.5589   30.0924    1.5434 C   0  0  0  0  0  0  0  0  0  0  0  0
   -1.2193   30.6042    2.7365 C   0  0  0  0  0  0  0  0  0  0  0  0
   -1.8942   30.2503    3.8707 N   0  0  0  0  0  0  0  0  0  0  0  0
   -4.2606   26.6468    4.7472 C   0  0  0  0  0  0  0  0  0  0  0  0
   -5.0328   25.7427    4.0003 C   0  0  0  0  0  0  0  0  0  0  0  0
   -4.6459   24.4061    3.8789 C   0  0  0  0  0  0  0  0  0  0  0  0
   -3.4864   23.9548    4.5081 C   0  0  0  0  0  0  0  0  0  0  0  0
   -2.7196   24.8412    5.2604 C   0  0  0  0  0  0  0  0  0  0  0  0
   -1.2921   24.2834    6.0432 Cl  0  0  0  0  0  0  0  0  0  0  0  0
   -3.1010   26.1766    5.3850 C   0  0  0  0  0  0  0  0  0  0  0  0
  2  1  1  1
  2  3  1  0
  3  4  2  3
  4  5  1  0
  5  6  2  0
  6  7  1  0
  7  8  2  0
  8  9  1  0
  2 10  1  0
 10 11  2  0
 11 12  1  0
 12 13  2  0
 13 14  1  0
 14 15  1  0
 14 16  2  0
  9  4  1  0
 16 10  1  0
M  END
>  <Energy>  (809) 
71.491421875003581

>  <Energy_Delta>  (809) 
2.7164963599284846

>  <std_smi>  (809) 
CC(Nc1cnccn1)c1cccc(Cl)c1

>  <enum_smi>  (809) 
C[C@@H](N=c1cncc[nH]1)c1cccc(Cl)c1

>  <enum_code>  (809) 
T

>  <parent_uuid>  (809) 
6620cc01-fc2b-4cc4-81f0-045e40704b17

>  <o3da_score>  (809) 
91.810185942885198

>  <o3da_score_rel>  (809) 
0.36550968988026783

>  <o3da_align>  (809) 
0.48912109710221446

>  <RMSD>  (809) 
0.0002422684734034548

>  <CONVERGED>  (809) 
0

>  <ENERGY>  (809) 
71.491422042832951

$$$$
2c23a7fb-19d0-42d5-a64a-aa57c178b891
     RDKit          3D

 16 17  0  0  0  0  0  0  0  0999 V2000
   -5.5558   28.4694    6.1104 C   0  0  0  0  0  0  0  0  0  0  0  0
   -4.7224   28.2024    4.8534 C   0  0  1  0  0  0  0  0  0  0  0  0
   -3.6102   29.1556    4.8632 N   0  0  0  0  0  0  0  0  0  0  0  0
   -2.9292   29.4129    3.7974 C   0  0  0  0  0  0  0  0  0  0  0  0
   -3.1690   28.7780    2.4226 C   0  0  0  0  0  0  0  0  0  0  0  0
   -2.4682   29.0853    1.3652 N   0  0  0  0  0  0  0  0  0  0  0  0
   -1.4673   30.0201    1.5292 C   0  0  0  0  0  0  0  0  0  0  0  0
   -1.1851   30.6139    2.6990 C   0  0  0  0  0  0  0  0  0  0  0  0
   -1.8974   30.3180    3.8270 N   0  0  0  0  0  0  0  0  0  0  0  0
   -4.2741   26.7514    4.8397 C   0  0  0  0  0  0  0  0  0  0  0  0
   -3.1307   26.3335    5.5395 C   0  0  0  0  0  0  0  0  0  0  0  0
   -2.7343   24.9946    5.5271 C   0  0  0  0  0  0  0  0  0  0  0  0
   -3.4807   24.0530    4.8206 C   0  0  0  0  0  0  0  0  0  0  0  0
   -4.6230   24.4547    4.1326 C   0  0  0  0  0  0  0  0  0  0  0  0
   -5.5509   23.2927    3.2662 Cl  0  0  0  0  0  0  0  0  0  0  0  0
   -5.0234   25.7915    4.1408 C   0  0  0  0  0  0  0  0  0  0  0  0
  2  1  1  1
  2  3  1  0
  3  4  2  3
  4  5  1  0
  5  6  2  0
  6  7  1  0
  7  8  2  0
  8  9  1  0
  2 10  1  0
 10 11  2  0
 11 12  1  0
 12 13  2  0
 13 14  1  0
 14 15  1  0
 14 16  2  0
  9  4  1  0
 16 10  1  0
M  END
>  <Energy>  (810) 
71.667259631144105

>  <Energy_Delta>  (810) 
2.8923341160690086

>  <std_smi>  (810) 
CC(Nc1cnccn1)c1cccc(Cl)c1

>  <enum_smi>  (810) 
C[C@@H](N=c1cncc[nH]1)c1cccc(Cl)c1

>  <enum_code>  (810) 
T

>  <parent_uuid>  (810) 
6620cc01-fc2b-4cc4-81f0-045e40704b17

>  <o3da_score>  (810) 
91.764198661457087

>  <o3da_score_rel>  (810) 
0.36532660783114007

>  <o3da_align>  (810) 
0.48392963211470458

>  <RMSD>  (810) 
8.6695237559230895e-05

>  <CONVERGED>  (810) 
0

>  <ENERGY>  (810) 
71.667259581462901

$$$$
2c23a7fb-19d0-42d5-a64a-aa57c178b891
     RDKit          3D

 16 17  0  0  0  0  0  0  0  0999 V2000
   -3.8178   29.8896    6.1423 C   0  0  0  0  0  0  0  0  0  0  0  0
   -3.4925   28.8935    5.0235 C   0  0  1  0  0  0  0  0  0  0  0  0
   -4.6984   28.1085    4.7172 N   0  0  0  0  0  0  0  0  0  0  0  0
   -5.6819   28.6056    4.0588 C   0  0  0  0  0  0  0  0  0  0  0  0
   -6.8681   27.6558    3.8553 C   0  0  0  0  0  0  0  0  0  0  0  0
   -7.9361   27.9760    3.1799 N   0  0  0  0  0  0  0  0  0  0  0  0
   -7.9660   29.2410    2.6328 C   0  0  0  0  0  0  0  0  0  0  0  0
   -6.9796   30.1392    2.7756 C   0  0  0  0  0  0  0  0  0  0  0  0
   -5.8528   29.8500    3.4989 N   0  0  0  0  0  0  0  0  0  0  0  0
   -2.7727   29.4436    3.7990 C   0  0  0  0  0  0  0  0  0  0  0  0
   -2.5175   28.5793    2.7179 C   0  0  0  0  0  0  0  0  0  0  0  0
   -1.8584   29.0282    1.5715 C   0  0  0  0  0  0  0  0  0  0  0  0
   -1.4329   30.3512    1.4880 C   0  0  0  0  0  0  0  0  0  0  0  0
   -1.6647   31.2149    2.5545 C   0  0  0  0  0  0  0  0  0  0  0  0
   -1.1387   32.8510    2.4561 Cl  0  0  0  0  0  0  0  0  0  0  0  0
   -2.3239   30.7702    3.7037 C   0  0  0  0  0  0  0  0  0  0  0  0
  2  1  1  1
  2  3  1  0
  3  4  2  3
  4  5  1  0
  5  6  2  0
  6  7  1  0
  7  8  2  0
  8  9  1  0
  2 10  1  0
 10 11  2  0
 11 12  1  0
 12 13  2  0
 13 14  1  0
 14 15  1  0
 14 16  2  0
  9  4  1  0
 16 10  1  0
M  END
>  <Energy>  (811) 
71.961880134294091

>  <Energy_Delta>  (811) 
3.1869546192189944

>  <std_smi>  (811) 
CC(Nc1cnccn1)c1cccc(Cl)c1

>  <enum_smi>  (811) 
C[C@@H](N=c1cncc[nH]1)c1cccc(Cl)c1

>  <enum_code>  (811) 
T

>  <parent_uuid>  (811) 
6620cc01-fc2b-4cc4-81f0-045e40704b17

>  <o3da_score>  (811) 
70.068463154428272

>  <o3da_score_rel>  (811) 
0.27895273247670344

>  <o3da_align>  (811) 
0.34743700455256438

>  <RMSD>  (811) 
0.00010562454323202098

>  <CONVERGED>  (811) 
0

>  <ENERGY>  (811) 
71.961879927614305

$$$$
2c23a7fb-19d0-42d5-a64a-aa57c178b891
     RDKit          3D

 16 17  0  0  0  0  0  0  0  0999 V2000
   -2.8029   29.2686    3.8892 C   0  0  0  0  0  0  0  0  0  0  0  0
   -3.7450   29.0042    5.0691 C   0  0  1  0  0  0  0  0  0  0  0  0
   -4.6109   27.8615    4.7402 N   0  0  0  0  0  0  0  0  0  0  0  0
   -4.1760   26.6539    4.7558 C   0  0  0  0  0  0  0  0  0  0  0  0
   -5.2058   25.5910    4.3552 C   0  0  0  0  0  0  0  0  0  0  0  0
   -4.9519   24.3124    4.3494 N   0  0  0  0  0  0  0  0  0  0  0  0
   -3.6842   23.9316    4.7342 C   0  0  0  0  0  0  0  0  0  0  0  0
   -2.7195   24.7958    5.0846 C   0  0  0  0  0  0  0  0  0  0  0  0
   -2.9375   26.1482    5.0753 N   0  0  0  0  0  0  0  0  0  0  0  0
   -3.1118   28.9363    6.4528 C   0  0  0  0  0  0  0  0  0  0  0  0
   -1.7541   29.2039    6.6904 C   0  0  0  0  0  0  0  0  0  0  0  0
   -1.2243   29.1307    7.9824 C   0  0  0  0  0  0  0  0  0  0  0  0
   -2.0443   28.7975    9.0588 C   0  0  0  0  0  0  0  0  0  0  0  0
   -3.3950   28.5441    8.8412 C   0  0  0  0  0  0  0  0  0  0  0  0
   -4.4125   28.1390   10.1679 Cl  0  0  0  0  0  0  0  0  0  0  0  0
   -3.9278   28.6165    7.5545 C   0  0  0  0  0  0  0  0  0  0  0  0
  2  1  1  6
  2  3  1  0
  3  4  2  3
  4  5  1  0
  5  6  2  0
  6  7  1  0
  7  8  2  0
  8  9  1  0
  2 10  1  0
 10 11  2  0
 11 12  1  0
 12 13  2  0
 13 14  1  0
 14 15  1  0
 14 16  2  0
  9  4  1  0
 16 10  1  0
M  END
>  <Energy>  (812) 
72.02639827919451

>  <Energy_Delta>  (812) 
3.2514727641194128

>  <std_smi>  (812) 
CC(Nc1cnccn1)c1cccc(Cl)c1

>  <enum_smi>  (812) 
C[C@@H](N=c1cncc[nH]1)c1cccc(Cl)c1

>  <enum_code>  (812) 
T

>  <parent_uuid>  (812) 
6620cc01-fc2b-4cc4-81f0-045e40704b17

>  <o3da_score>  (812) 
68.885149310280269

>  <o3da_score_rel>  (812) 
0.27424178813252542

>  <o3da_align>  (812) 
0.22886476824122839

>  <RMSD>  (812) 
6.6967191128227771e-05

>  <CONVERGED>  (812) 
0

>  <ENERGY>  (812) 
72.026398209307459

$$$$
2c23a7fb-19d0-42d5-a64a-aa57c178b891
     RDKit          3D

 16 17  0  0  0  0  0  0  0  0999 V2000
   -3.5018   29.1893    6.3495 C   0  0  0  0  0  0  0  0  0  0  0  0
   -3.3069   28.7870    4.8865 C   0  0  1  0  0  0  0  0  0  0  0  0
   -4.3530   27.8389    4.5018 N   0  0  0  0  0  0  0  0  0  0  0  0
   -4.2519   26.5701    4.7056 C   0  0  0  0  0  0  0  0  0  0  0  0
   -3.0680   25.8786    5.3908 C   0  0  0  0  0  0  0  0  0  0  0  0
   -2.9900   24.5851    5.5447 N   0  0  0  0  0  0  0  0  0  0  0  0
   -4.0424   23.8351    5.0620 C   0  0  0  0  0  0  0  0  0  0  0  0
   -5.1250   24.3628    4.4702 C   0  0  0  0  0  0  0  0  0  0  0  0
   -5.2462   25.7137    4.3033 N   0  0  0  0  0  0  0  0  0  0  0  0
   -3.3516   30.0276    4.0054 C   0  0  0  0  0  0  0  0  0  0  0  0
   -2.1597   30.6324    3.5739 C   0  0  0  0  0  0  0  0  0  0  0  0
   -2.1894   31.7816    2.7800 C   0  0  0  0  0  0  0  0  0  0  0  0
   -3.4106   32.3437    2.4104 C   0  0  0  0  0  0  0  0  0  0  0  0
   -4.5985   31.7550    2.8374 C   0  0  0  0  0  0  0  0  0  0  0  0
   -6.1064   32.4506    2.3845 Cl  0  0  0  0  0  0  0  0  0  0  0  0
   -4.5747   30.6084    3.6305 C   0  0  0  0  0  0  0  0  0  0  0  0
  2  1  1  1
  2  3  1  0
  3  4  2  3
  4  5  1  0
  5  6  2  0
  6  7  1  0
  7  8  2  0
  8  9  1  0
  2 10  1  0
 10 11  2  0
 11 12  1  0
 12 13  2  0
 13 14  1  0
 14 15  1  0
 14 16  2  0
  9  4  1  0
 16 10  1  0
M  END
>  <Energy>  (813) 
73.471092439709153

>  <Energy_Delta>  (813) 
4.6961669246340563

>  <std_smi>  (813) 
CC(Nc1cnccn1)c1cccc(Cl)c1

>  <enum_smi>  (813) 
C[C@@H](N=c1cncc[nH]1)c1cccc(Cl)c1

>  <enum_code>  (813) 
T

>  <parent_uuid>  (813) 
6620cc01-fc2b-4cc4-81f0-045e40704b17

>  <o3da_score>  (813) 
76.022958540548132

>  <o3da_score_rel>  (813) 
0.30265844377248602

>  <o3da_align>  (813) 
0.46670030139664664

>  <RMSD>  (813) 
6.884230678950995e-05

>  <CONVERGED>  (813) 
0

>  <ENERGY>  (813) 
73.471092419047409

$$$$
2c23a7fb-19d0-42d5-a64a-aa57c178b891
     RDKit          3D

 16 17  0  0  0  0  0  0  0  0999 V2000
   -3.8409   27.9624    1.7315 C   0  0  0  0  0  0  0  0  0  0  0  0
   -2.7667   28.2189    2.7902 C   0  0  1  0  0  0  0  0  0  0  0  0
   -2.6886   29.6547    3.0629 N   0  0  0  0  0  0  0  0  0  0  0  0
   -1.9693   30.4581    2.3563 C   0  0  0  0  0  0  0  0  0  0  0  0
   -1.1333   30.0532    1.1368 C   0  0  0  0  0  0  0  0  0  0  0  0
   -0.3906   30.8946    0.4710 N   0  0  0  0  0  0  0  0  0  0  0  0
   -0.3842   32.2028    0.9086 C   0  0  0  0  0  0  0  0  0  0  0  0
   -1.1031   32.6438    1.9523 C   0  0  0  0  0  0  0  0  0  0  0  0
   -1.9023   31.7941    2.6643 N   0  0  0  0  0  0  0  0  0  0  0  0
   -3.1028   27.4449    4.0573 C   0  0  0  0  0  0  0  0  0  0  0  0
   -4.0635   27.9177    4.9667 C   0  0  0  0  0  0  0  0  0  0  0  0
   -4.3801   27.1915    6.1168 C   0  0  0  0  0  0  0  0  0  0  0  0
   -3.7428   25.9786    6.3723 C   0  0  0  0  0  0  0  0  0  0  0  0
   -2.7922   25.4977    5.4750 C   0  0  0  0  0  0  0  0  0  0  0  0
   -2.0073   23.9975    5.7864 Cl  0  0  0  0  0  0  0  0  0  0  0  0
   -2.4720   26.2191    4.3240 C   0  0  0  0  0  0  0  0  0  0  0  0
  2  1  1  6
  2  3  1  0
  3  4  2  3
  4  5  1  0
  5  6  2  0
  6  7  1  0
  7  8  2  0
  8  9  1  0
  2 10  1  0
 10 11  2  0
 11 12  1  0
 12 13  2  0
 13 14  1  0
 14 15  1  0
 14 16  2  0
  9  4  1  0
 16 10  1  0
M  END
>  <Energy>  (814) 
73.65037909986701

>  <Energy_Delta>  (814) 
4.8754535847919129

>  <std_smi>  (814) 
CC(Nc1cnccn1)c1cccc(Cl)c1

>  <enum_smi>  (814) 
C[C@@H](N=c1cncc[nH]1)c1cccc(Cl)c1

>  <enum_code>  (814) 
T

>  <parent_uuid>  (814) 
6620cc01-fc2b-4cc4-81f0-045e40704b17

>  <o3da_score>  (814) 
69.544798714046365

>  <o3da_score_rel>  (814) 
0.27686794825325806

>  <o3da_align>  (814) 
0.56048097269087238

>  <RMSD>  (814) 
6.1789522341615749e-05

>  <CONVERGED>  (814) 
0

>  <ENERGY>  (814) 
73.650379086052396

$$$$
2c23a7fb-19d0-42d5-a64a-aa57c178b891
     RDKit          3D

 16 17  0  0  0  0  0  0  0  0999 V2000
   -3.5204   29.1248    5.5639 C   0  0  0  0  0  0  0  0  0  0  0  0
   -4.5093   28.1685    4.8893 C   0  0  1  0  0  0  0  0  0  0  0  0
   -4.9350   28.7292    3.6019 N   0  0  0  0  0  0  0  0  0  0  0  0
   -4.2186   28.7703    2.5322 C   0  0  0  0  0  0  0  0  0  0  0  0
   -2.7854   28.2484    2.3949 C   0  0  0  0  0  0  0  0  0  0  0  0
   -2.1019   28.3230    1.2849 N   0  0  0  0  0  0  0  0  0  0  0  0
   -2.7325   28.8956    0.2005 C   0  0  0  0  0  0  0  0  0  0  0  0
   -3.9853   29.3747    0.2344 C   0  0  0  0  0  0  0  0  0  0  0  0
   -4.7266   29.3204    1.3808 N   0  0  0  0  0  0  0  0  0  0  0  0
   -4.1490   26.6913    4.8453 C   0  0  0  0  0  0  0  0  0  0  0  0
   -3.0326   26.1556    5.5068 C   0  0  0  0  0  0  0  0  0  0  0  0
   -2.7518   24.7869    5.4477 C   0  0  0  0  0  0  0  0  0  0  0  0
   -3.5885   23.9292    4.7363 C   0  0  0  0  0  0  0  0  0  0  0  0
   -4.7083   24.4423    4.0899 C   0  0  0  0  0  0  0  0  0  0  0  0
   -5.7510   23.3870    3.2183 Cl  0  0  0  0  0  0  0  0  0  0  0  0
   -4.9920   25.8068    4.1459 C   0  0  0  0  0  0  0  0  0  0  0  0
  2  1  1  6
  2  3  1  0
  3  4  2  3
  4  5  1  0
  5  6  2  0
  6  7  1  0
  7  8  2  0
  8  9  1  0
  2 10  1  0
 10 11  2  0
 11 12  1  0
 12 13  2  0
 13 14  1  0
 14 15  1  0
 14 16  2  0
  9  4  1  0
 16 10  1  0
M  END
>  <Energy>  (815) 
76.022746019334448

>  <Energy_Delta>  (815) 
7.2478205042593515

>  <std_smi>  (815) 
CC(Nc1cnccn1)c1cccc(Cl)c1

>  <enum_smi>  (815) 
C[C@@H](N=c1cncc[nH]1)c1cccc(Cl)c1

>  <enum_code>  (815) 
T

>  <parent_uuid>  (815) 
6620cc01-fc2b-4cc4-81f0-045e40704b17

>  <o3da_score>  (815) 
69.781303895519301

>  <o3da_score_rel>  (815) 
0.27780950974392993

>  <o3da_align>  (815) 
0.41543001021554915

>  <RMSD>  (815) 
0.00010043621414130956

>  <CONVERGED>  (815) 
0

>  <ENERGY>  (815) 
76.022745824228309

$$$$
2c23a7fb-19d0-42d5-a64a-aa57c178b891
     RDKit          3D

 16 17  0  0  0  0  0  0  0  0999 V2000
   -3.7492   29.8013    6.2713 C   0  0  0  0  0  0  0  0  0  0  0  0
   -3.4989   28.8222    5.1194 C   0  0  1  0  0  0  0  0  0  0  0  0
   -4.6941   27.9968    4.9097 N   0  0  0  0  0  0  0  0  0  0  0  0
   -5.7883   28.3952    4.3591 C   0  0  0  0  0  0  0  0  0  0  0  0
   -6.0572   29.8024    3.8178 C   0  0  0  0  0  0  0  0  0  0  0  0
   -7.1940   30.1545    3.2804 N   0  0  0  0  0  0  0  0  0  0  0  0
   -8.1754   29.1889    3.2049 C   0  0  0  0  0  0  0  0  0  0  0  0
   -8.0204   27.9326    3.6494 C   0  0  0  0  0  0  0  0  0  0  0  0
   -6.8457   27.5297    4.2187 N   0  0  0  0  0  0  0  0  0  0  0  0
   -2.8779   29.3729    3.8442 C   0  0  0  0  0  0  0  0  0  0  0  0
   -2.7444   28.5253    2.7284 C   0  0  0  0  0  0  0  0  0  0  0  0
   -2.1672   28.9776    1.5398 C   0  0  0  0  0  0  0  0  0  0  0  0
   -1.7000   30.2859    1.4482 C   0  0  0  0  0  0  0  0  0  0  0  0
   -1.8082   31.1316    2.5484 C   0  0  0  0  0  0  0  0  0  0  0  0
   -1.2222   32.7470    2.4420 Cl  0  0  0  0  0  0  0  0  0  0  0  0
   -2.3860   30.6836    3.7393 C   0  0  0  0  0  0  0  0  0  0  0  0
  2  1  1  1
  2  3  1  0
  3  4  2  3
  4  5  1  0
  5  6  2  0
  6  7  1  0
  7  8  2  0
  8  9  1  0
  2 10  1  0
 10 11  2  0
 11 12  1  0
 12 13  2  0
 13 14  1  0
 14 15  1  0
 14 16  2  0
  9  4  1  0
 16 10  1  0
M  END
>  <Energy>  (816) 
76.171326517698148

>  <Energy_Delta>  (816) 
7.3964010026230511

>  <std_smi>  (816) 
CC(Nc1cnccn1)c1cccc(Cl)c1

>  <enum_smi>  (816) 
C[C@@H](N=c1cncc[nH]1)c1cccc(Cl)c1

>  <enum_code>  (816) 
T

>  <parent_uuid>  (816) 
6620cc01-fc2b-4cc4-81f0-045e40704b17

>  <o3da_score>  (816) 
70.783462992479386

>  <o3da_score_rel>  (816) 
0.28179925071851464

>  <o3da_align>  (816) 
0.33841474484701023

>  <RMSD>  (816) 
0.00017431969152855551

>  <CONVERGED>  (816) 
0

>  <ENERGY>  (816) 
76.171326703729235

$$$$
4e810991-aed2-4454-abd7-144e75321c80
     RDKit          3D

 16 17  0  0  0  0  0  0  0  0999 V2000
   -5.4992   28.2268    6.4020 C   0  0  0  0  0  0  0  0  0  0  0  0
   -4.8242   28.1238    5.0344 C   0  0  0  0  0  0  0  0  0  0  0  0
   -3.7623   29.1286    4.9412 N   0  0  0  0  0  0  0  0  0  0  0  0
   -2.9899   29.3703    3.8190 C   0  0  0  0  0  0  0  0  0  0  0  0
   -2.0525   30.4149    3.7842 C   0  0  0  0  0  0  0  0  0  0  0  0
   -1.2939   30.7115    2.7030 N   0  0  0  0  0  0  0  0  0  0  0  0
   -1.4797   29.9559    1.6054 C   0  0  0  0  0  0  0  0  0  0  0  0
   -2.4022   28.9270    1.5715 C   0  0  0  0  0  0  0  0  0  0  0  0
   -3.1317   28.6747    2.6738 N   0  0  0  0  0  4  0  0  0  0  0  0
   -4.3028   26.7191    4.7926 C   0  0  0  0  0  0  0  0  0  0  0  0
   -5.0404   25.8352    3.9850 C   0  0  0  0  0  0  0  0  0  0  0  0
   -4.5759   24.5422    3.7333 C   0  0  0  0  0  0  0  0  0  0  0  0
   -3.3730   24.1103    4.2896 C   0  0  0  0  0  0  0  0  0  0  0  0
   -2.6452   24.9682    5.1084 C   0  0  0  0  0  0  0  0  0  0  0  0
   -1.1613   24.4430    5.7977 Cl  0  0  0  0  0  0  0  0  0  0  0  0
   -3.1051   26.2606    5.3674 C   0  0  0  0  0  0  0  0  0  0  0  0
  1  2  1  0
  2  3  1  0
  3  4  1  0
  4  5  2  0
  5  6  1  0
  6  7  2  0
  7  8  1  0
  8  9  2  0
  2 10  1  0
 10 11  2  0
 11 12  1  0
 12 13  2  0
 13 14  1  0
 14 15  1  0
 14 16  2  0
  9  4  1  0
 16 10  1  0
M  CHG  1   9   1
M  END
>  <Energy>  (817) 
70.008714070127311

>  <Energy_Delta>  (817) 
0

>  <std_smi>  (817) 
CC(Nc1cnccn1)c1cccc(Cl)c1

>  <enum_smi>  (817) 
CC(Nc1cncc[nH+]1)c1cccc(Cl)c1

>  <enum_code>  (817) 
M

>  <parent_uuid>  (817) 
6620cc01-fc2b-4cc4-81f0-045e40704b17

>  <o3da_score>  (817) 
97.815833291292918

>  <o3da_score_rel>  (817) 
0.38941904457008775

>  <o3da_align>  (817) 
0.40151348362274142

>  <RMSD>  (817) 
0.11197924916065408

>  <CONVERGED>  (817) 
0

>  <ENERGY>  (817) 
70.794984647398778

$$$$
4e810991-aed2-4454-abd7-144e75321c80
     RDKit          3D

 16 17  0  0  0  0  0  0  0  0999 V2000
   -5.3533   28.3714    6.5816 C   0  0  0  0  0  0  0  0  0  0  0  0
   -4.7458   28.2052    5.1887 C   0  0  0  0  0  0  0  0  0  0  0  0
   -3.6816   29.1948    5.0025 N   0  0  0  0  0  0  0  0  0  0  0  0
   -2.9766   29.3886    3.8270 C   0  0  0  0  0  0  0  0  0  0  0  0
   -2.0073   30.3979    3.7108 C   0  0  0  0  0  0  0  0  0  0  0  0
   -1.3129   30.6498    2.5764 N   0  0  0  0  0  0  0  0  0  0  0  0
   -1.6013   29.8870    1.5062 C   0  0  0  0  0  0  0  0  0  0  0  0
   -2.5614   28.8936    1.5516 C   0  0  0  0  0  0  0  0  0  0  0  0
   -3.2216   28.6836    2.7053 N   0  0  0  0  0  4  0  0  0  0  0  0
   -4.2406   26.7892    4.9802 C   0  0  0  0  0  0  0  0  0  0  0  0
   -3.0535   26.3262    5.5725 C   0  0  0  0  0  0  0  0  0  0  0  0
   -2.6061   25.0216    5.3490 C   0  0  0  0  0  0  0  0  0  0  0  0
   -3.3401   24.1579    4.5377 C   0  0  0  0  0  0  0  0  0  0  0  0
   -4.5280   24.5976    3.9633 C   0  0  0  0  0  0  0  0  0  0  0  0
   -5.4376   23.5437    2.9562 Cl  0  0  0  0  0  0  0  0  0  0  0  0
   -4.9833   25.8991    4.1845 C   0  0  0  0  0  0  0  0  0  0  0  0
  1  2  1  0
  2  3  1  0
  3  4  1  0
  4  5  2  0
  5  6  1  0
  6  7  2  0
  7  8  1  0
  8  9  2  0
  2 10  1  0
 10 11  2  0
 11 12  1  0
 12 13  2  0
 13 14  1  0
 14 15  1  0
 14 16  2  0
  9  4  1  0
 16 10  1  0
M  CHG  1   9   1
M  END
>  <Energy>  (818) 
70.150095566552451

>  <Energy_Delta>  (818) 
0.14138149642514009

>  <std_smi>  (818) 
CC(Nc1cnccn1)c1cccc(Cl)c1

>  <enum_smi>  (818) 
CC(Nc1cncc[nH+]1)c1cccc(Cl)c1

>  <enum_code>  (818) 
M

>  <parent_uuid>  (818) 
6620cc01-fc2b-4cc4-81f0-045e40704b17

>  <o3da_score>  (818) 
95.680872907314097

>  <o3da_score_rel>  (818) 
0.38091945708052305

>  <o3da_align>  (818) 
0.44891036128068335

>  <RMSD>  (818) 
0.14485039824929152

>  <CONVERGED>  (818) 
0

>  <ENERGY>  (818) 
70.914334068819088

$$$$
4e810991-aed2-4454-abd7-144e75321c80
     RDKit          3D

 16 17  0  0  0  0  0  0  0  0999 V2000
   -2.4633   28.0558    5.9920 C   0  0  0  0  0  0  0  0  0  0  0  0
   -3.4430   28.8681    5.1452 C   0  0  0  0  0  0  0  0  0  0  0  0
   -4.6438   28.0681    4.8915 N   0  0  0  0  0  0  0  0  0  0  0  0
   -5.7735   28.5215    4.2321 C   0  0  0  0  0  0  0  0  0  0  0  0
   -6.9083   27.7092    4.0774 C   0  0  0  0  0  0  0  0  0  0  0  0
   -8.0483   28.1136    3.4698 N   0  0  0  0  0  0  0  0  0  0  0  0
   -8.0767   29.3791    3.0135 C   0  0  0  0  0  0  0  0  0  0  0  0
   -7.0001   30.2341    3.1565 C   0  0  0  0  0  0  0  0  0  0  0  0
   -5.8901   29.7807    3.7674 N   0  0  0  0  0  4  0  0  0  0  0  0
   -2.7927   29.3321    3.8547 C   0  0  0  0  0  0  0  0  0  0  0  0
   -2.5614   28.4573    2.7797 C   0  0  0  0  0  0  0  0  0  0  0  0
   -1.9748   28.9180    1.5982 C   0  0  0  0  0  0  0  0  0  0  0  0
   -1.6037   30.2559    1.4749 C   0  0  0  0  0  0  0  0  0  0  0  0
   -1.8077   31.1268    2.5399 C   0  0  0  0  0  0  0  0  0  0  0  0
   -1.3602   32.7796    2.3967 Cl  0  0  0  0  0  0  0  0  0  0  0  0
   -2.3905   30.6733    3.7251 C   0  0  0  0  0  0  0  0  0  0  0  0
  1  2  1  0
  2  3  1  0
  3  4  1  0
  4  5  2  0
  5  6  1  0
  6  7  2  0
  7  8  1  0
  8  9  2  0
  2 10  1  0
 10 11  2  0
 11 12  1  0
 12 13  2  0
 13 14  1  0
 14 15  1  0
 14 16  2  0
  9  4  1  0
 16 10  1  0
M  CHG  1   9   1
M  END
>  <Energy>  (819) 
70.15009559288346

>  <Energy_Delta>  (819) 
0.14138152275614857

>  <std_smi>  (819) 
CC(Nc1cnccn1)c1cccc(Cl)c1

>  <enum_smi>  (819) 
CC(Nc1cncc[nH+]1)c1cccc(Cl)c1

>  <enum_code>  (819) 
M

>  <parent_uuid>  (819) 
6620cc01-fc2b-4cc4-81f0-045e40704b17

>  <o3da_score>  (819) 
72.557051227202976

>  <o3da_score_rel>  (819) 
0.28886016317601032

>  <o3da_align>  (819) 
0.32548159909172764

>  <RMSD>  (819) 
0.14479935611441563

>  <CONVERGED>  (819) 
0

>  <ENERGY>  (819) 
70.914334068802106

$$$$
4e810991-aed2-4454-abd7-144e75321c80
     RDKit          3D

 16 17  0  0  0  0  0  0  0  0999 V2000
   -4.2963   30.2930    5.2638 C   0  0  0  0  0  0  0  0  0  0  0  0
   -3.6820   28.9837    4.7605 C   0  0  0  0  0  0  0  0  0  0  0  0
   -4.6575   27.8945    4.9437 N   0  0  0  0  0  0  0  0  0  0  0  0
   -4.2640   26.5781    4.8112 C   0  0  0  0  0  0  0  0  0  0  0  0
   -3.0003   26.0551    5.1239 C   0  0  0  0  0  0  0  0  0  0  0  0
   -2.6707   24.7473    4.9899 N   0  0  0  0  0  0  0  0  0  0  0  0
   -3.6319   23.9192    4.5432 C   0  0  0  0  0  0  0  0  0  0  0  0
   -4.9021   24.3701    4.2401 C   0  0  0  0  0  0  0  0  0  0  0  0
   -5.1764   25.6784    4.3906 N   0  0  0  0  0  4  0  0  0  0  0  0
   -3.2836   29.0719    3.2978 C   0  0  0  0  0  0  0  0  0  0  0  0
   -1.9454   28.8660    2.9221 C   0  0  0  0  0  0  0  0  0  0  0  0
   -1.5638   28.9156    1.5787 C   0  0  0  0  0  0  0  0  0  0  0  0
   -2.5126   29.1690    0.5898 C   0  0  0  0  0  0  0  0  0  0  0  0
   -3.8397   29.3792    0.9493 C   0  0  0  0  0  0  0  0  0  0  0  0
   -5.0217   29.6779   -0.2632 Cl  0  0  0  0  0  0  0  0  0  0  0  0
   -4.2275   29.3364    2.2898 C   0  0  0  0  0  0  0  0  0  0  0  0
  1  2  1  0
  2  3  1  0
  3  4  1  0
  4  5  2  0
  5  6  1  0
  6  7  2  0
  7  8  1  0
  8  9  2  0
  2 10  1  0
 10 11  2  0
 11 12  1  0
 12 13  2  0
 13 14  1  0
 14 15  1  0
 14 16  2  0
  9  4  1  0
 16 10  1  0
M  CHG  1   9   1
M  END
>  <Energy>  (820) 
70.266732381803749

>  <Energy_Delta>  (820) 
0.25801831167643741

>  <std_smi>  (820) 
CC(Nc1cnccn1)c1cccc(Cl)c1

>  <enum_smi>  (820) 
CC(Nc1cncc[nH+]1)c1cccc(Cl)c1

>  <enum_code>  (820) 
M

>  <parent_uuid>  (820) 
6620cc01-fc2b-4cc4-81f0-045e40704b17

>  <o3da_score>  (820) 
82.351673038437767

>  <o3da_score_rel>  (820) 
0.3278539757247188

>  <o3da_align>  (820) 
0.2943053096917066

>  <RMSD>  (820) 
8.3391307560161992e-05

>  <CONVERGED>  (820) 
0

>  <ENERGY>  (820) 
70.266732327291322

$$$$
4e810991-aed2-4454-abd7-144e75321c80
     RDKit          3D

 16 17  0  0  0  0  0  0  0  0999 V2000
   -5.6159   28.3214    6.1049 C   0  0  0  0  0  0  0  0  0  0  0  0
   -4.3995   28.0677    5.2099 C   0  0  0  0  0  0  0  0  0  0  0  0
   -4.6225   28.7120    3.9035 N   0  0  0  0  0  0  0  0  0  0  0  0
   -3.5798   28.8535    3.0102 C   0  0  0  0  0  0  0  0  0  0  0  0
   -2.2284   29.0425    3.3364 C   0  0  0  0  0  0  0  0  0  0  0  0
   -1.2441   29.1927    2.4171 N   0  0  0  0  0  0  0  0  0  0  0  0
   -1.6102   29.1702    1.1230 C   0  0  0  0  0  0  0  0  0  0  0  0
   -2.9275   29.0103    0.7390 C   0  0  0  0  0  0  0  0  0  0  0  0
   -3.8655   28.8650    1.6922 N   0  0  0  0  0  4  0  0  0  0  0  0
   -4.1439   26.5841    5.0107 C   0  0  0  0  0  0  0  0  0  0  0  0
   -2.9170   26.0249    5.4057 C   0  0  0  0  0  0  0  0  0  0  0  0
   -2.6520   24.6675    5.2057 C   0  0  0  0  0  0  0  0  0  0  0  0
   -3.6068   23.8483    4.6061 C   0  0  0  0  0  0  0  0  0  0  0  0
   -4.8272   24.3888    4.2149 C   0  0  0  0  0  0  0  0  0  0  0  0
   -6.0071   23.3911    3.4607 Cl  0  0  0  0  0  0  0  0  0  0  0  0
   -5.1011   25.7430    4.4162 C   0  0  0  0  0  0  0  0  0  0  0  0
  1  2  1  0
  2  3  1  0
  3  4  1  0
  4  5  2  0
  5  6  1  0
  6  7  2  0
  7  8  1  0
  8  9  2  0
  2 10  1  0
 10 11  2  0
 11 12  1  0
 12 13  2  0
 13 14  1  0
 14 15  1  0
 14 16  2  0
  9  4  1  0
 16 10  1  0
M  CHG  1   9   1
M  END
>  <Energy>  (821) 
70.26673240309475

>  <Energy_Delta>  (821) 
0.25801833296743837

>  <std_smi>  (821) 
CC(Nc1cnccn1)c1cccc(Cl)c1

>  <enum_smi>  (821) 
CC(Nc1cncc[nH+]1)c1cccc(Cl)c1

>  <enum_code>  (821) 
M

>  <parent_uuid>  (821) 
6620cc01-fc2b-4cc4-81f0-045e40704b17

>  <o3da_score>  (821) 
69.218742072465091

>  <o3da_score_rel>  (821) 
0.27556986938843675

>  <o3da_align>  (821) 
0.44949135159216269

>  <RMSD>  (821) 
0.00011092128127075729

>  <CONVERGED>  (821) 
0

>  <ENERGY>  (821) 
70.266732325983853

$$$$
4e810991-aed2-4454-abd7-144e75321c80
     RDKit          3D

 16 17  0  0  0  0  0  0  0  0999 V2000
   -5.5296   30.0712    4.3183 C   0  0  0  0  0  0  0  0  0  0  0  0
   -4.7342   28.8464    3.8565 C   0  0  0  0  0  0  0  0  0  0  0  0
   -4.5054   27.9664    5.0179 N   0  0  0  0  0  0  0  0  0  0  0  0
   -4.2093   26.6330    4.7982 C   0  0  0  0  0  0  0  0  0  0  0  0
   -4.8179   25.8056    3.8427 C   0  0  0  0  0  0  0  0  0  0  0  0
   -4.5007   24.5007    3.6657 N   0  0  0  0  0  0  0  0  0  0  0  0
   -3.5592   23.9864    4.4772 C   0  0  0  0  0  0  0  0  0  0  0  0
   -2.9435   24.7439    5.4552 C   0  0  0  0  0  0  0  0  0  0  0  0
   -3.2934   26.0363    5.5874 N   0  0  0  0  0  4  0  0  0  0  0  0
   -3.3882   29.1981    3.2438 C   0  0  0  0  0  0  0  0  0  0  0  0
   -2.5110   30.1211    3.8396 C   0  0  0  0  0  0  0  0  0  0  0  0
   -1.2633   30.3926    3.2709 C   0  0  0  0  0  0  0  0  0  0  0  0
   -0.8674   29.7397    2.1051 C   0  0  0  0  0  0  0  0  0  0  0  0
   -1.7233   28.8202    1.5082 C   0  0  0  0  0  0  0  0  0  0  0  0
   -1.2358   27.9966    0.0802 Cl  0  0  0  0  0  0  0  0  0  0  0  0
   -2.9735   28.5487    2.0672 C   0  0  0  0  0  0  0  0  0  0  0  0
  1  2  1  0
  2  3  1  0
  3  4  1  0
  4  5  2  0
  5  6  1  0
  6  7  2  0
  7  8  1  0
  8  9  2  0
  2 10  1  0
 10 11  2  0
 11 12  1  0
 12 13  2  0
 13 14  1  0
 14 15  1  0
 14 16  2  0
  9  4  1  0
 16 10  1  0
M  CHG  1   9   1
M  END
>  <Energy>  (822) 
70.711953849458183

>  <Energy_Delta>  (822) 
0.70323977933087178

>  <std_smi>  (822) 
CC(Nc1cnccn1)c1cccc(Cl)c1

>  <enum_smi>  (822) 
CC(Nc1cncc[nH+]1)c1cccc(Cl)c1

>  <enum_code>  (822) 
M

>  <parent_uuid>  (822) 
6620cc01-fc2b-4cc4-81f0-045e40704b17

>  <o3da_score>  (822) 
74.816987577128543

>  <o3da_score_rel>  (822) 
0.29785729814450179

>  <o3da_align>  (822) 
0.50115925194996924

>  <RMSD>  (822) 
7.2700858127780387e-05

>  <CONVERGED>  (822) 
0

>  <ENERGY>  (822) 
70.711953814852464

$$$$
4e810991-aed2-4454-abd7-144e75321c80
     RDKit          3D

 16 17  0  0  0  0  0  0  0  0999 V2000
   -4.1648   30.2498    5.5157 C   0  0  0  0  0  0  0  0  0  0  0  0
   -3.6379   28.9857    4.8296 C   0  0  0  0  0  0  0  0  0  0  0  0
   -4.6485   27.9196    4.9632 N   0  0  0  0  0  0  0  0  0  0  0  0
   -4.2519   26.6015    4.8247 C   0  0  0  0  0  0  0  0  0  0  0  0
   -3.0762   26.0410    5.3457 C   0  0  0  0  0  0  0  0  0  0  0  0
   -2.7296   24.7407    5.1910 N   0  0  0  0  0  0  0  0  0  0  0  0
   -3.5870   23.9576    4.5118 C   0  0  0  0  0  0  0  0  0  0  0  0
   -4.7734   24.4456    3.9985 C   0  0  0  0  0  0  0  0  0  0  0  0
   -5.0688   25.7459    4.1779 N   0  0  0  0  0  4  0  0  0  0  0  0
   -3.3358   29.1831    3.3530 C   0  0  0  0  0  0  0  0  0  0  0  0
   -4.2255   29.8424    2.4868 C   0  0  0  0  0  0  0  0  0  0  0  0
   -3.9351   29.9725    1.1257 C   0  0  0  0  0  0  0  0  0  0  0  0
   -2.7579   29.4376    0.6060 C   0  0  0  0  0  0  0  0  0  0  0  0
   -1.8714   28.7781    1.4507 C   0  0  0  0  0  0  0  0  0  0  0  0
   -0.4257   28.0992    0.8150 Cl  0  0  0  0  0  0  0  0  0  0  0  0
   -2.1519   28.6500    2.8124 C   0  0  0  0  0  0  0  0  0  0  0  0
  1  2  1  0
  2  3  1  0
  3  4  1  0
  4  5  2  0
  5  6  1  0
  6  7  2  0
  7  8  1  0
  8  9  2  0
  2 10  1  0
 10 11  2  0
 11 12  1  0
 12 13  2  0
 13 14  1  0
 14 15  1  0
 14 16  2  0
  9  4  1  0
 16 10  1  0
M  CHG  1   9   1
M  END
>  <Energy>  (823) 
70.711953888603418

>  <Energy_Delta>  (823) 
0.70323981847610639

>  <std_smi>  (823) 
CC(Nc1cnccn1)c1cccc(Cl)c1

>  <enum_smi>  (823) 
CC(Nc1cncc[nH+]1)c1cccc(Cl)c1

>  <enum_code>  (823) 
M

>  <parent_uuid>  (823) 
6620cc01-fc2b-4cc4-81f0-045e40704b17

>  <o3da_score>  (823) 
85.198039421968687

>  <o3da_score_rel>  (823) 
0.33918577386286025

>  <o3da_align>  (823) 
0.22239818517234042

>  <RMSD>  (823) 
6.5873461340636738e-05

>  <CONVERGED>  (823) 
0

>  <ENERGY>  (823) 
70.711953814581847

$$$$
4e810991-aed2-4454-abd7-144e75321c80
     RDKit          3D

 16 17  0  0  0  0  0  0  0  0999 V2000
   -2.4328   28.0619    5.9327 C   0  0  0  0  0  0  0  0  0  0  0  0
   -3.4745   28.8300    5.1162 C   0  0  0  0  0  0  0  0  0  0  0  0
   -4.6181   27.9474    4.8387 N   0  0  0  0  0  0  0  0  0  0  0  0
   -5.8086   28.3972    4.2753 C   0  0  0  0  0  0  0  0  0  0  0  0
   -6.9740   27.6114    4.3040 C   0  0  0  0  0  0  0  0  0  0  0  0
   -8.1419   27.9701    3.7213 N   0  0  0  0  0  0  0  0  0  0  0  0
   -8.1503   29.1325    3.0443 C   0  0  0  0  0  0  0  0  0  0  0  0
   -7.0246   29.9273    2.9403 C   0  0  0  0  0  0  0  0  0  0  0  0
   -5.8928   29.5316    3.5517 N   0  0  0  0  0  4  0  0  0  0  0  0
   -2.8463   29.3565    3.8390 C   0  0  0  0  0  0  0  0  0  0  0  0
   -2.4330   30.6977    3.7643 C   0  0  0  0  0  0  0  0  0  0  0  0
   -1.8686   31.2033    2.5910 C   0  0  0  0  0  0  0  0  0  0  0  0
   -1.7031   30.3762    1.4806 C   0  0  0  0  0  0  0  0  0  0  0  0
   -2.0900   29.0411    1.5500 C   0  0  0  0  0  0  0  0  0  0  0  0
   -1.8939   28.0191    0.1830 Cl  0  0  0  0  0  0  0  0  0  0  0  0
   -2.6518   28.5285    2.7196 C   0  0  0  0  0  0  0  0  0  0  0  0
  1  2  1  0
  2  3  1  0
  3  4  1  0
  4  5  2  0
  5  6  1  0
  6  7  2  0
  7  8  1  0
  8  9  2  0
  2 10  1  0
 10 11  2  0
 11 12  1  0
 12 13  2  0
 13 14  1  0
 14 15  1  0
 14 16  2  0
  9  4  1  0
 16 10  1  0
M  CHG  1   9   1
M  END
>  <Energy>  (824) 
70.794984659033645

>  <Energy_Delta>  (824) 
0.7862705889063335

>  <std_smi>  (824) 
CC(Nc1cnccn1)c1cccc(Cl)c1

>  <enum_smi>  (824) 
CC(Nc1cncc[nH+]1)c1cccc(Cl)c1

>  <enum_code>  (824) 
M

>  <parent_uuid>  (824) 
6620cc01-fc2b-4cc4-81f0-045e40704b17

>  <o3da_score>  (824) 
69.059463159787839

>  <o3da_score_rel>  (824) 
0.27493575689449901

>  <o3da_align>  (824) 
0.35758797330092995

>  <RMSD>  (824) 
0.11200298543768739

>  <CONVERGED>  (824) 
0

>  <ENERGY>  (824) 
70.008712344886803

$$$$
4e810991-aed2-4454-abd7-144e75321c80
     RDKit          3D

 16 17  0  0  0  0  0  0  0  0999 V2000
   -2.4906   28.4730    6.1839 C   0  0  0  0  0  0  0  0  0  0  0  0
   -3.5015   29.0234    5.1760 C   0  0  0  0  0  0  0  0  0  0  0  0
   -2.7935   29.5254    3.9943 N   0  0  0  0  0  0  0  0  0  0  0  0
   -2.3273   30.8027    3.8592 C   0  0  0  0  0  0  0  0  0  0  0  0
   -2.3421   31.8125    4.8313 C   0  0  0  0  0  0  0  0  0  0  0  0
   -1.8616   33.0633    4.6266 N   0  0  0  0  0  0  0  0  0  0  0  0
   -1.3449   33.3287    3.4133 C   0  0  0  0  0  0  0  0  0  0  0  0
   -1.3003   32.3752    2.4149 C   0  0  0  0  0  0  0  0  0  0  0  0
   -1.7903   31.1494    2.6717 N   0  0  0  0  0  4  0  0  0  0  0  0
   -4.5279   28.0137    4.6860 C   0  0  0  0  0  0  0  0  0  0  0  0
   -4.2740   26.6341    4.6166 C   0  0  0  0  0  0  0  0  0  0  0  0
   -5.2410   25.7521    4.1238 C   0  0  0  0  0  0  0  0  0  0  0  0
   -6.4716   26.2339    3.6815 C   0  0  0  0  0  0  0  0  0  0  0  0
   -6.7325   27.5986    3.7330 C   0  0  0  0  0  0  0  0  0  0  0  0
   -8.2399   28.2070    3.1729 Cl  0  0  0  0  0  0  0  0  0  0  0  0
   -5.7731   28.4840    4.2274 C   0  0  0  0  0  0  0  0  0  0  0  0
  1  2  1  0
  2  3  1  0
  3  4  1  0
  4  5  2  0
  5  6  1  0
  6  7  2  0
  7  8  1  0
  8  9  2  0
  2 10  1  0
 10 11  2  0
 11 12  1  0
 12 13  2  0
 13 14  1  0
 14 15  1  0
 14 16  2  0
  9  4  1  0
 16 10  1  0
M  CHG  1   9   1
M  END
>  <Energy>  (825) 
71.389543229857495

>  <Energy_Delta>  (825) 
1.3808291597301832

>  <std_smi>  (825) 
CC(Nc1cnccn1)c1cccc(Cl)c1

>  <enum_smi>  (825) 
CC(Nc1cncc[nH+]1)c1cccc(Cl)c1

>  <enum_code>  (825) 
M

>  <parent_uuid>  (825) 
6620cc01-fc2b-4cc4-81f0-045e40704b17

>  <o3da_score>  (825) 
73.390137309365102

>  <o3da_score_rel>  (825) 
0.2921767999130721

>  <o3da_align>  (825) 
0.33081625994407898

>  <RMSD>  (825) 
7.493553212984999e-05

>  <CONVERGED>  (825) 
0

>  <ENERGY>  (825) 
71.389543224577395

$$$$
4e810991-aed2-4454-abd7-144e75321c80
     RDKit          3D

 16 17  0  0  0  0  0  0  0  0999 V2000
   -5.6744   28.5167    4.5218 C   0  0  0  0  0  0  0  0  0  0  0  0
   -4.2473   27.9650    4.5071 C   0  0  0  0  0  0  0  0  0  0  0  0
   -3.5965   28.3200    3.2422 N   0  0  0  0  0  0  0  0  0  0  0  0
   -2.8948   29.4738    3.0331 C   0  0  0  0  0  0  0  0  0  0  0  0
   -2.7565   30.5490    3.9218 C   0  0  0  0  0  0  0  0  0  0  0  0
   -2.0405   31.6667    3.6474 N   0  0  0  0  0  0  0  0  0  0  0  0
   -1.4366   31.7264    2.4470 C   0  0  0  0  0  0  0  0  0  0  0  0
   -1.5370   30.7003    1.5279 C   0  0  0  0  0  0  0  0  0  0  0  0
   -2.2608   29.6138    1.8511 N   0  0  0  0  0  4  0  0  0  0  0  0
   -4.1461   26.4545    4.6526 C   0  0  0  0  0  0  0  0  0  0  0  0
   -5.1540   25.5737    4.2272 C   0  0  0  0  0  0  0  0  0  0  0  0
   -4.9948   24.1898    4.3516 C   0  0  0  0  0  0  0  0  0  0  0  0
   -3.8229   23.6628    4.8911 C   0  0  0  0  0  0  0  0  0  0  0  0
   -2.8115   24.5223    5.3053 C   0  0  0  0  0  0  0  0  0  0  0  0
   -1.3536   23.8833    5.9552 Cl  0  0  0  0  0  0  0  0  0  0  0  0
   -2.9656   25.9046    5.1876 C   0  0  0  0  0  0  0  0  0  0  0  0
  1  2  1  0
  2  3  1  0
  3  4  1  0
  4  5  2  0
  5  6  1  0
  6  7  2  0
  7  8  1  0
  8  9  2  0
  2 10  1  0
 10 11  2  0
 11 12  1  0
 12 13  2  0
 13 14  1  0
 14 15  1  0
 14 16  2  0
  9  4  1  0
 16 10  1  0
M  CHG  1   9   1
M  END
>  <Energy>  (826) 
71.389543233447114

>  <Energy_Delta>  (826) 
1.3808291633198024

>  <std_smi>  (826) 
CC(Nc1cnccn1)c1cccc(Cl)c1

>  <enum_smi>  (826) 
CC(Nc1cncc[nH+]1)c1cccc(Cl)c1

>  <enum_code>  (826) 
M

>  <parent_uuid>  (826) 
6620cc01-fc2b-4cc4-81f0-045e40704b17

>  <o3da_score>  (826) 
86.959559546380191

>  <o3da_score_rel>  (826) 
0.34619864141975681

>  <o3da_align>  (826) 
0.45501818562875757

>  <RMSD>  (826) 
5.9033518644228024e-05

>  <CONVERGED>  (826) 
0

>  <ENERGY>  (826) 
71.389543223606765

$$$$
4e810991-aed2-4454-abd7-144e75321c80
     RDKit          3D

 16 17  0  0  0  0  0  0  0  0999 V2000
   -3.1169   29.2687    6.5649 C   0  0  0  0  0  0  0  0  0  0  0  0
   -3.5239   28.9229    5.1308 C   0  0  0  0  0  0  0  0  0  0  0  0
   -2.5298   29.4399    4.1855 N   0  0  0  0  0  0  0  0  0  0  0  0
   -2.5247   30.7132    3.6895 C   0  0  0  0  0  0  0  0  0  0  0  0
   -3.4196   31.7449    4.0056 C   0  0  0  0  0  0  0  0  0  0  0  0
   -3.3560   32.9887    3.4709 N   0  0  0  0  0  0  0  0  0  0  0  0
   -2.3690   33.2247    2.5879 C   0  0  0  0  0  0  0  0  0  0  0  0
   -1.4568   32.2493    2.2355 C   0  0  0  0  0  0  0  0  0  0  0  0
   -1.5658   31.0318    2.7962 N   0  0  0  0  0  4  0  0  0  0  0  0
   -3.6546   27.4282    4.8845 C   0  0  0  0  0  0  0  0  0  0  0  0
   -4.7239   26.9445    4.1099 C   0  0  0  0  0  0  0  0  0  0  0  0
   -4.8550   25.5796    3.8400 C   0  0  0  0  0  0  0  0  0  0  0  0
   -3.9139   24.6765    4.3298 C   0  0  0  0  0  0  0  0  0  0  0  0
   -2.8444   25.1425    5.0876 C   0  0  0  0  0  0  0  0  0  0  0  0
   -1.6674   24.0370    5.6795 Cl  0  0  0  0  0  0  0  0  0  0  0  0
   -2.7090   26.5050    5.3639 C   0  0  0  0  0  0  0  0  0  0  0  0
  1  2  1  0
  2  3  1  0
  3  4  1  0
  4  5  2  0
  5  6  1  0
  6  7  2  0
  7  8  1  0
  8  9  2  0
  2 10  1  0
 10 11  2  0
 11 12  1  0
 12 13  2  0
 13 14  1  0
 14 15  1  0
 14 16  2  0
  9  4  1  0
 16 10  1  0
M  CHG  1   9   1
M  END
>  <Energy>  (827) 
71.496931224264941

>  <Energy_Delta>  (827) 
1.4882171541376294

>  <std_smi>  (827) 
CC(Nc1cnccn1)c1cccc(Cl)c1

>  <enum_smi>  (827) 
CC(Nc1cncc[nH+]1)c1cccc(Cl)c1

>  <enum_code>  (827) 
M

>  <parent_uuid>  (827) 
6620cc01-fc2b-4cc4-81f0-045e40704b17

>  <o3da_score>  (827) 
72.001407807739312

>  <o3da_score_rel>  (827) 
0.28664806599042658

>  <o3da_align>  (827) 
0.59367482029472196

>  <RMSD>  (827) 
8.1289897543107599e-05

>  <CONVERGED>  (827) 
0

>  <ENERGY>  (827) 
71.496931226088435

$$$$
4e810991-aed2-4454-abd7-144e75321c80
     RDKit          3D

 16 17  0  0  0  0  0  0  0  0999 V2000
   -5.4990   28.5803    4.6670 C   0  0  0  0  0  0  0  0  0  0  0  0
   -4.0885   27.9896    4.6090 C   0  0  0  0  0  0  0  0  0  0  0  0
   -3.4623   28.3041    3.3213 N   0  0  0  0  0  0  0  0  0  0  0  0
   -2.7962   29.4660    3.0498 C   0  0  0  0  0  0  0  0  0  0  0  0
   -2.6196   30.5578    3.9111 C   0  0  0  0  0  0  0  0  0  0  0  0
   -1.9422   31.6824    3.5741 N   0  0  0  0  0  0  0  0  0  0  0  0
   -1.4171   31.7321    2.3366 C   0  0  0  0  0  0  0  0  0  0  0  0
   -1.5567   30.6886    1.4425 C   0  0  0  0  0  0  0  0  0  0  0  0
   -2.2388   29.5957    1.8285 N   0  0  0  0  0  4  0  0  0  0  0  0
   -4.0601   26.4784    4.7739 C   0  0  0  0  0  0  0  0  0  0  0  0
   -3.0606   25.8866    5.5665 C   0  0  0  0  0  0  0  0  0  0  0  0
   -2.9888   24.4987    5.7134 C   0  0  0  0  0  0  0  0  0  0  0  0
   -3.9074   23.6783    5.0620 C   0  0  0  0  0  0  0  0  0  0  0  0
   -4.8942   24.2496    4.2652 C   0  0  0  0  0  0  0  0  0  0  0  0
   -6.0200   23.2434    3.4418 Cl  0  0  0  0  0  0  0  0  0  0  0  0
   -4.9737   25.6362    4.1165 C   0  0  0  0  0  0  0  0  0  0  0  0
  1  2  1  0
  2  3  1  0
  3  4  1  0
  4  5  2  0
  5  6  1  0
  6  7  2  0
  7  8  1  0
  8  9  2  0
  2 10  1  0
 10 11  2  0
 11 12  1  0
 12 13  2  0
 13 14  1  0
 14 15  1  0
 14 16  2  0
  9  4  1  0
 16 10  1  0
M  CHG  1   9   1
M  END
>  <Energy>  (828) 
71.496931255778463

>  <Energy_Delta>  (828) 
1.4882171856511519

>  <std_smi>  (828) 
CC(Nc1cnccn1)c1cccc(Cl)c1

>  <enum_smi>  (828) 
CC(Nc1cncc[nH+]1)c1cccc(Cl)c1

>  <enum_code>  (828) 
M

>  <parent_uuid>  (828) 
6620cc01-fc2b-4cc4-81f0-045e40704b17

>  <o3da_score>  (828) 
85.366848815793645

>  <o3da_score_rel>  (828) 
0.3398578285869866

>  <o3da_align>  (828) 
0.49960955884472924

>  <RMSD>  (828) 
7.2132555077476638e-05

>  <CONVERGED>  (828) 
0

>  <ENERGY>  (828) 
71.496931217104546

$$$$
4e810991-aed2-4454-abd7-144e75321c80
     RDKit          3D

 16 17  0  0  0  0  0  0  0  0999 V2000
   -2.9271   29.3126    3.6716 C   0  0  0  0  0  0  0  0  0  0  0  0
   -3.7156   29.0778    4.9643 C   0  0  0  0  0  0  0  0  0  0  0  0
   -4.5989   27.9201    4.7711 N   0  0  0  0  0  0  0  0  0  0  0  0
   -4.2517   26.5834    4.7722 C   0  0  0  0  0  0  0  0  0  0  0  0
   -5.1860   25.5827    4.4585 C   0  0  0  0  0  0  0  0  0  0  0  0
   -4.8925   24.2618    4.4154 N   0  0  0  0  0  0  0  0  0  0  0  0
   -3.6195   23.9146    4.6776 C   0  0  0  0  0  0  0  0  0  0  0  0
   -2.6500   24.8543    4.9723 C   0  0  0  0  0  0  0  0  0  0  0  0
   -2.9955   26.1543    5.0004 N   0  0  0  0  0  4  0  0  0  0  0  0
   -2.9027   28.9580    6.2456 C   0  0  0  0  0  0  0  0  0  0  0  0
   -1.5105   29.1498    6.2857 C   0  0  0  0  0  0  0  0  0  0  0  0
   -0.8003   29.0152    7.4831 C   0  0  0  0  0  0  0  0  0  0  0  0
   -1.4673   28.6973    8.6641 C   0  0  0  0  0  0  0  0  0  0  0  0
   -2.8469   28.5302    8.6482 C   0  0  0  0  0  0  0  0  0  0  0  0
   -3.6815   28.1381   10.0979 Cl  0  0  0  0  0  0  0  0  0  0  0  0
   -3.5616   28.6666    7.4565 C   0  0  0  0  0  0  0  0  0  0  0  0
  1  2  1  0
  2  3  1  0
  3  4  1  0
  4  5  2  0
  5  6  1  0
  6  7  2  0
  7  8  1  0
  8  9  2  0
  2 10  1  0
 10 11  2  0
 11 12  1  0
 12 13  2  0
 13 14  1  0
 14 15  1  0
 14 16  2  0
  9  4  1  0
 16 10  1  0
M  CHG  1   9   1
M  END
>  <Energy>  (829) 
71.775003798701349

>  <Energy_Delta>  (829) 
1.7662897285740371

>  <std_smi>  (829) 
CC(Nc1cnccn1)c1cccc(Cl)c1

>  <enum_smi>  (829) 
CC(Nc1cncc[nH+]1)c1cccc(Cl)c1

>  <enum_code>  (829) 
M

>  <parent_uuid>  (829) 
6620cc01-fc2b-4cc4-81f0-045e40704b17

>  <o3da_score>  (829) 
71.864705198913043

>  <o3da_score_rel>  (829) 
0.28610383304236353

>  <o3da_align>  (829) 
0.15336498051913725

>  <RMSD>  (829) 
0.075142721461547574

>  <CONVERGED>  (829) 
0

>  <ENERGY>  (829) 
72.752429714043558

$$$$
4e810991-aed2-4454-abd7-144e75321c80
     RDKit          3D

 16 17  0  0  0  0  0  0  0  0999 V2000
   -5.9992   28.5799    4.5535 C   0  0  0  0  0  0  0  0  0  0  0  0
   -4.7118   28.0627    5.2041 C   0  0  0  0  0  0  0  0  0  0  0  0
   -3.6011   28.9744    4.8758 N   0  0  0  0  0  0  0  0  0  0  0  0
   -3.0313   29.1434    3.6225 C   0  0  0  0  0  0  0  0  0  0  0  0
   -2.1602   30.2129    3.3513 C   0  0  0  0  0  0  0  0  0  0  0  0
   -1.5309   30.3945    2.1666 N   0  0  0  0  0  0  0  0  0  0  0  0
   -1.7366   29.4598    1.2213 C   0  0  0  0  0  0  0  0  0  0  0  0
   -2.5470   28.3624    1.4414 C   0  0  0  0  0  0  0  0  0  0  0  0
   -3.1602   28.2381    2.6326 N   0  0  0  0  0  4  0  0  0  0  0  0
   -4.3444   26.6121    4.9286 C   0  0  0  0  0  0  0  0  0  0  0  0
   -5.1897   25.7267    4.2384 C   0  0  0  0  0  0  0  0  0  0  0  0
   -4.8011   24.4047    3.9981 C   0  0  0  0  0  0  0  0  0  0  0  0
   -3.5677   23.9408    4.4510 C   0  0  0  0  0  0  0  0  0  0  0  0
   -2.7299   24.7959    5.1573 C   0  0  0  0  0  0  0  0  0  0  0  0
   -1.2054   24.2356    5.7171 Cl  0  0  0  0  0  0  0  0  0  0  0  0
   -3.1136   26.1151    5.4024 C   0  0  0  0  0  0  0  0  0  0  0  0
  1  2  1  0
  2  3  1  0
  3  4  1  0
  4  5  2  0
  5  6  1  0
  6  7  2  0
  7  8  1  0
  8  9  2  0
  2 10  1  0
 10 11  2  0
 11 12  1  0
 12 13  2  0
 13 14  1  0
 14 15  1  0
 14 16  2  0
  9  4  1  0
 16 10  1  0
M  CHG  1   9   1
M  END
>  <Energy>  (830) 
72.752430039818506

>  <Energy_Delta>  (830) 
2.7437159696911948

>  <std_smi>  (830) 
CC(Nc1cnccn1)c1cccc(Cl)c1

>  <enum_smi>  (830) 
CC(Nc1cncc[nH+]1)c1cccc(Cl)c1

>  <enum_code>  (830) 
M

>  <parent_uuid>  (830) 
6620cc01-fc2b-4cc4-81f0-045e40704b17

>  <o3da_score>  (830) 
94.171527422017775

>  <o3da_score_rel>  (830) 
0.3749105334018798

>  <o3da_align>  (830) 
0.45686204164821426

>  <RMSD>  (830) 
0.0750000452155761

>  <CONVERGED>  (830) 
0

>  <ENERGY>  (830) 
71.775003542279478

$$$$
4e810991-aed2-4454-abd7-144e75321c80
     RDKit          3D

 16 17  0  0  0  0  0  0  0  0999 V2000
   -5.9609   28.6010    4.6441 C   0  0  0  0  0  0  0  0  0  0  0  0
   -4.6534   28.1125    5.2763 C   0  0  0  0  0  0  0  0  0  0  0  0
   -3.5557   29.0176    4.8898 N   0  0  0  0  0  0  0  0  0  0  0  0
   -3.0295   29.1545    3.6134 C   0  0  0  0  0  0  0  0  0  0  0  0
   -2.1805   30.2247    3.2811 C   0  0  0  0  0  0  0  0  0  0  0  0
   -1.5951   30.3781    2.0701 N   0  0  0  0  0  0  0  0  0  0  0  0
   -1.8254   29.4157    1.1588 C   0  0  0  0  0  0  0  0  0  0  0  0
   -2.6146   28.3165    1.4389 C   0  0  0  0  0  0  0  0  0  0  0  0
   -3.1812   28.2192    2.6554 N   0  0  0  0  0  4  0  0  0  0  0  0
   -4.2837   26.6554    5.0430 C   0  0  0  0  0  0  0  0  0  0  0  0
   -3.0582   26.1702    5.5395 C   0  0  0  0  0  0  0  0  0  0  0  0
   -2.6702   24.8433    5.3393 C   0  0  0  0  0  0  0  0  0  0  0  0
   -3.5044   23.9701    4.6465 C   0  0  0  0  0  0  0  0  0  0  0  0
   -4.7286   24.4254    4.1694 C   0  0  0  0  0  0  0  0  0  0  0  0
   -5.7614   23.3579    3.3045 Cl  0  0  0  0  0  0  0  0  0  0  0  0
   -5.1232   25.7523    4.3684 C   0  0  0  0  0  0  0  0  0  0  0  0
  1  2  1  0
  2  3  1  0
  3  4  1  0
  4  5  2  0
  5  6  1  0
  6  7  2  0
  7  8  1  0
  8  9  2  0
  2 10  1  0
 10 11  2  0
 11 12  1  0
 12 13  2  0
 13 14  1  0
 14 15  1  0
 14 16  2  0
  9  4  1  0
 16 10  1  0
M  CHG  1   9   1
M  END
>  <Energy>  (831) 
72.908616386259652

>  <Energy_Delta>  (831) 
2.8999023161323407

>  <std_smi>  (831) 
CC(Nc1cnccn1)c1cccc(Cl)c1

>  <enum_smi>  (831) 
CC(Nc1cncc[nH+]1)c1cccc(Cl)c1

>  <enum_code>  (831) 
M

>  <parent_uuid>  (831) 
6620cc01-fc2b-4cc4-81f0-045e40704b17

>  <o3da_score>  (831) 
93.045726853223712

>  <o3da_score_rel>  (831) 
0.37042855776332773

>  <o3da_align>  (831) 
0.48308464031024317

>  <RMSD>  (831) 
0.097888951870932356

>  <CONVERGED>  (831) 
0

>  <ENERGY>  (831) 
71.912850607244863

$$$$
4e810991-aed2-4454-abd7-144e75321c80
     RDKit          3D

 16 17  0  0  0  0  0  0  0  0999 V2000
   -3.1729   29.2427    3.4406 C   0  0  0  0  0  0  0  0  0  0  0  0
   -3.7569   29.0680    4.8452 C   0  0  0  0  0  0  0  0  0  0  0  0
   -4.6598   27.9172    4.8765 N   0  0  0  0  0  0  0  0  0  0  0  0
   -4.2717   26.5931    4.8293 C   0  0  0  0  0  0  0  0  0  0  0  0
   -5.2090   25.5525    4.7254 C   0  0  0  0  0  0  0  0  0  0  0  0
   -4.8814   24.2392    4.7254 N   0  0  0  0  0  0  0  0  0  0  0  0
   -3.5782   23.9383    4.8668 C   0  0  0  0  0  0  0  0  0  0  0  0
   -2.6126   24.9166    5.0110 C   0  0  0  0  0  0  0  0  0  0  0  0
   -2.9907   26.2089    4.9962 N   0  0  0  0  0  4  0  0  0  0  0  0
   -4.5335   30.2637    5.3689 C   0  0  0  0  0  0  0  0  0  0  0  0
   -5.1161   31.2314    4.5342 C   0  0  0  0  0  0  0  0  0  0  0  0
   -5.8398   32.3008    5.0726 C   0  0  0  0  0  0  0  0  0  0  0  0
   -6.0022   32.4170    6.4516 C   0  0  0  0  0  0  0  0  0  0  0  0
   -5.4426   31.4600    7.2902 C   0  0  0  0  0  0  0  0  0  0  0  0
   -5.6449   31.5852    8.9931 Cl  0  0  0  0  0  0  0  0  0  0  0  0
   -4.7180   30.3915    6.7593 C   0  0  0  0  0  0  0  0  0  0  0  0
  1  2  1  0
  2  3  1  0
  3  4  1  0
  4  5  2  0
  5  6  1  0
  6  7  2  0
  7  8  1  0
  8  9  2  0
  2 10  1  0
 10 11  2  0
 11 12  1  0
 12 13  2  0
 13 14  1  0
 14 15  1  0
 14 16  2  0
  9  4  1  0
 16 10  1  0
M  CHG  1   9   1
M  END
>  <Energy>  (832) 
75.017389299942579

>  <Energy_Delta>  (832) 
5.0086752298152675

>  <std_smi>  (832) 
CC(Nc1cnccn1)c1cccc(Cl)c1

>  <enum_smi>  (832) 
CC(Nc1cncc[nH+]1)c1cccc(Cl)c1

>  <enum_code>  (832) 
M

>  <parent_uuid>  (832) 
6620cc01-fc2b-4cc4-81f0-045e40704b17

>  <o3da_score>  (832) 
70.492644317799119

>  <o3da_score_rel>  (832) 
0.28064145931985762

>  <o3da_align>  (832) 
0.26369547949727024

>  <RMSD>  (832) 
0.34699848024969304

>  <CONVERGED>  (832) 
0

>  <ENERGY>  (832) 
75.223276591178717

$$$$
4e810991-aed2-4454-abd7-144e75321c80
     RDKit          3D

 16 17  0  0  0  0  0  0  0  0999 V2000
   -3.6666   29.0428    5.6084 C   0  0  0  0  0  0  0  0  0  0  0  0
   -4.5973   28.1295    4.8055 C   0  0  0  0  0  0  0  0  0  0  0  0
   -4.8787   28.7218    3.4858 N   0  0  0  0  0  0  0  0  0  0  0  0
   -4.0017   28.8525    2.4441 C   0  0  0  0  0  0  0  0  0  0  0  0
   -2.6798   28.3901    2.3738 C   0  0  0  0  0  0  0  0  0  0  0  0
   -1.8720   28.5638    1.2975 N   0  0  0  0  0  0  0  0  0  0  0  0
   -2.3915   29.2098    0.2402 C   0  0  0  0  0  0  0  0  0  0  0  0
   -3.6883   29.6815    0.2430 C   0  0  0  0  0  0  0  0  0  0  0  0
   -4.4444   29.4881    1.3384 N   0  0  0  0  0  4  0  0  0  0  0  0
   -4.2235   26.6611    4.6937 C   0  0  0  0  0  0  0  0  0  0  0  0
   -5.0923   25.7776    4.0231 C   0  0  0  0  0  0  0  0  0  0  0  0
   -4.7923   24.4181    3.9041 C   0  0  0  0  0  0  0  0  0  0  0  0
   -3.6205   23.9121    4.4603 C   0  0  0  0  0  0  0  0  0  0  0  0
   -2.7593   24.7668    5.1401 C   0  0  0  0  0  0  0  0  0  0  0  0
   -1.3122   24.1480    5.8336 Cl  0  0  0  0  0  0  0  0  0  0  0  0
   -3.0558   26.1272    5.2642 C   0  0  0  0  0  0  0  0  0  0  0  0
  1  2  1  0
  2  3  1  0
  3  4  1  0
  4  5  2  0
  5  6  1  0
  6  7  2  0
  7  8  1  0
  8  9  2  0
  2 10  1  0
 10 11  2  0
 11 12  1  0
 12 13  2  0
 13 14  1  0
 14 15  1  0
 14 16  2  0
  9  4  1  0
 16 10  1  0
M  CHG  1   9   1
M  END
>  <Energy>  (833) 
75.045968472176298

>  <Energy_Delta>  (833) 
5.0372544020489869

>  <std_smi>  (833) 
CC(Nc1cnccn1)c1cccc(Cl)c1

>  <enum_smi>  (833) 
CC(Nc1cncc[nH+]1)c1cccc(Cl)c1

>  <enum_code>  (833) 
M

>  <parent_uuid>  (833) 
6620cc01-fc2b-4cc4-81f0-045e40704b17

>  <o3da_score>  (833) 
71.029077780616504

>  <o3da_score_rel>  (833) 
0.28277707887690501

>  <o3da_align>  (833) 
0.33491559249745328

>  <RMSD>  (833) 
6.2397380806025702e-05

>  <CONVERGED>  (833) 
0

>  <ENERGY>  (833) 
75.045968459451444

$$$$
4e810991-aed2-4454-abd7-144e75321c80
     RDKit          3D

 16 17  0  0  0  0  0  0  0  0999 V2000
   -3.6586   29.1214    4.4985 C   0  0  0  0  0  0  0  0  0  0  0  0
   -2.2061   28.6368    4.4749 C   0  0  0  0  0  0  0  0  0  0  0  0
   -1.6594   28.7152    3.1207 N   0  0  0  0  0  0  0  0  0  0  0  0
   -1.3378   29.8801    2.4529 C   0  0  0  0  0  0  0  0  0  0  0  0
   -0.9366   29.8721    1.1070 C   0  0  0  0  0  0  0  0  0  0  0  0
   -0.5654   30.9803    0.4239 N   0  0  0  0  0  0  0  0  0  0  0  0
   -0.5597   32.1401    1.1047 C   0  0  0  0  0  0  0  0  0  0  0  0
   -0.9087   32.2064    2.4404 C   0  0  0  0  0  0  0  0  0  0  0  0
   -1.2766   31.0755    3.0720 N   0  0  0  0  0  4  0  0  0  0  0  0
   -2.0254   27.2082    4.9567 C   0  0  0  0  0  0  0  0  0  0  0  0
   -0.8549   26.8595    5.6552 C   0  0  0  0  0  0  0  0  0  0  0  0
   -0.6406   25.5496    6.0926 C   0  0  0  0  0  0  0  0  0  0  0  0
   -1.5870   24.5619    5.8303 C   0  0  0  0  0  0  0  0  0  0  0  0
   -2.7418   24.8880    5.1270 C   0  0  0  0  0  0  0  0  0  0  0  0
   -3.9085   23.6712    4.7853 Cl  0  0  0  0  0  0  0  0  0  0  0  0
   -2.9626   26.1960    4.6876 C   0  0  0  0  0  0  0  0  0  0  0  0
  1  2  1  0
  2  3  1  0
  3  4  1  0
  4  5  2  0
  5  6  1  0
  6  7  2  0
  7  8  1  0
  8  9  2  0
  2 10  1  0
 10 11  2  0
 11 12  1  0
 12 13  2  0
 13 14  1  0
 14 15  1  0
 14 16  2  0
  9  4  1  0
 16 10  1  0
M  CHG  1   9   1
M  END
>  <Energy>  (834) 
75.145450342058879

>  <Energy_Delta>  (834) 
5.1367362719315679

>  <std_smi>  (834) 
CC(Nc1cnccn1)c1cccc(Cl)c1

>  <enum_smi>  (834) 
CC(Nc1cncc[nH+]1)c1cccc(Cl)c1

>  <enum_code>  (834) 
M

>  <parent_uuid>  (834) 
6620cc01-fc2b-4cc4-81f0-045e40704b17

>  <o3da_score>  (834) 
80.630914494700036

>  <o3da_score_rel>  (834) 
0.32100338594297423

>  <o3da_align>  (834) 
0.57214063575275975

>  <RMSD>  (834) 
0.24154736043155073

>  <CONVERGED>  (834) 
0

>  <ENERGY>  (834) 
75.514380916154096

$$$$
4e810991-aed2-4454-abd7-144e75321c80
     RDKit          3D

 16 17  0  0  0  0  0  0  0  0999 V2000
   -2.3193   27.4015    6.0484 C   0  0  0  0  0  0  0  0  0  0  0  0
   -3.1147   27.1779    4.7604 C   0  0  0  0  0  0  0  0  0  0  0  0
   -2.2968   27.5157    3.5926 N   0  0  0  0  0  0  0  0  0  0  0  0
   -2.1460   28.7986    3.0909 C   0  0  0  0  0  0  0  0  0  0  0  0
   -1.4372   29.0391    1.9018 C   0  0  0  0  0  0  0  0  0  0  0  0
   -1.2188   30.2727    1.3896 N   0  0  0  0  0  0  0  0  0  0  0  0
   -1.6945   31.3154    2.0933 C   0  0  0  0  0  0  0  0  0  0  0  0
   -2.3709   31.1454    3.2865 C   0  0  0  0  0  0  0  0  0  0  0  0
   -2.5676   29.8963    3.7498 N   0  0  0  0  0  4  0  0  0  0  0  0
   -3.5777   25.7378    4.6284 C   0  0  0  0  0  0  0  0  0  0  0  0
   -2.6674   24.6660    4.6387 C   0  0  0  0  0  0  0  0  0  0  0  0
   -3.1112   23.3485    4.4989 C   0  0  0  0  0  0  0  0  0  0  0  0
   -4.4698   23.0811    4.3412 C   0  0  0  0  0  0  0  0  0  0  0  0
   -5.3798   24.1331    4.3229 C   0  0  0  0  0  0  0  0  0  0  0  0
   -7.0574   23.8131    4.1213 Cl  0  0  0  0  0  0  0  0  0  0  0  0
   -4.9435   25.4525    4.4627 C   0  0  0  0  0  0  0  0  0  0  0  0
  1  2  1  0
  2  3  1  0
  3  4  1  0
  4  5  2  0
  5  6  1  0
  6  7  2  0
  7  8  1  0
  8  9  2  0
  2 10  1  0
 10 11  2  0
 11 12  1  0
 12 13  2  0
 13 14  1  0
 14 15  1  0
 14 16  2  0
  9  4  1  0
 16 10  1  0
M  CHG  1   9   1
M  END
>  <Energy>  (835) 
75.22327660665475

>  <Energy_Delta>  (835) 
5.2145625365274384

>  <std_smi>  (835) 
CC(Nc1cnccn1)c1cccc(Cl)c1

>  <enum_smi>  (835) 
CC(Nc1cncc[nH+]1)c1cccc(Cl)c1

>  <enum_code>  (835) 
M

>  <parent_uuid>  (835) 
6620cc01-fc2b-4cc4-81f0-045e40704b17

>  <o3da_score>  (835) 
71.113464212773536

>  <o3da_score_rel>  (835) 
0.28311303352432293

>  <o3da_align>  (835) 
0.53626903436760265

>  <RMSD>  (835) 
0.34703689650283731

>  <CONVERGED>  (835) 
0

>  <ENERGY>  (835) 
75.017389271133595

$$$$
4e810991-aed2-4454-abd7-144e75321c80
     RDKit          3D

 16 17  0  0  0  0  0  0  0  0999 V2000
   -3.2604   29.2215    6.5209 C   0  0  0  0  0  0  0  0  0  0  0  0
   -3.6123   28.8312    5.0835 C   0  0  0  0  0  0  0  0  0  0  0  0
   -2.5966   29.3328    4.1539 N   0  0  0  0  0  0  0  0  0  0  0  0
   -2.5555   30.6269    3.6608 C   0  0  0  0  0  0  0  0  0  0  0  0
   -1.6053   31.0123    2.7002 C   0  0  0  0  0  0  0  0  0  0  0  0
   -1.4892   32.2710    2.2163 N   0  0  0  0  0  0  0  0  0  0  0  0
   -2.3251   33.1954    2.7214 C   0  0  0  0  0  0  0  0  0  0  0  0
   -3.2597   32.8850    3.6911 C   0  0  0  0  0  0  0  0  0  0  0  0
   -3.3401   31.6155    4.1335 N   0  0  0  0  0  4  0  0  0  0  0  0
   -3.7102   27.3236    4.9296 C   0  0  0  0  0  0  0  0  0  0  0  0
   -4.9094   26.7330    4.4979 C   0  0  0  0  0  0  0  0  0  0  0  0
   -5.0069   25.3474    4.3417 C   0  0  0  0  0  0  0  0  0  0  0  0
   -3.9083   24.5325    4.6105 C   0  0  0  0  0  0  0  0  0  0  0  0
   -2.7139   25.1055    5.0350 C   0  0  0  0  0  0  0  0  0  0  0  0
   -1.3518   24.1081    5.3603 Cl  0  0  0  0  0  0  0  0  0  0  0  0
   -2.6095   26.4882    5.1941 C   0  0  0  0  0  0  0  0  0  0  0  0
  1  2  1  0
  2  3  1  0
  3  4  1  0
  4  5  2  0
  5  6  1  0
  6  7  2  0
  7  8  1  0
  8  9  2  0
  2 10  1  0
 10 11  2  0
 11 12  1  0
 12 13  2  0
 13 14  1  0
 14 15  1  0
 14 16  2  0
  9  4  1  0
 16 10  1  0
M  CHG  1   9   1
M  END
>  <Energy>  (836) 
75.514381120718355

>  <Energy_Delta>  (836) 
5.5056670505910432

>  <std_smi>  (836) 
CC(Nc1cnccn1)c1cccc(Cl)c1

>  <enum_smi>  (836) 
CC(Nc1cncc[nH+]1)c1cccc(Cl)c1

>  <enum_code>  (836) 
M

>  <parent_uuid>  (836) 
6620cc01-fc2b-4cc4-81f0-045e40704b17

>  <o3da_score>  (836) 
70.314713118689085

>  <o3da_score_rel>  (836) 
0.27993308936353067

>  <o3da_align>  (836) 
0.52801602836726214

>  <RMSD>  (836) 
0.24145428275490682

>  <CONVERGED>  (836) 
0

>  <ENERGY>  (836) 
75.145450328568813

$$$$
9ca5f2d5-e2a0-42e3-9b0c-c08d47b02df7
     RDKit          3D

 16 17  0  0  0  0  0  0  0  0999 V2000
   -3.6013   29.0856    4.8138 C   0  0  0  0  0  0  0  0  0  0  0  0
   -2.3813   29.7592    4.1841 C   0  0  0  0  0  0  0  0  0  0  0  0
   -2.8756   30.7103    3.1266 N   0  0  0  0  0  4  0  0  0  0  0  0
   -1.8250   31.2420    2.2882 C   0  0  0  0  0  0  0  0  0  0  0  0
   -1.1139   32.4166    2.5639 C   0  0  0  0  0  0  0  0  0  0  0  0
   -0.1541   32.8067    1.6927 N   0  0  0  0  0  4  0  0  0  0  0  0
    0.1130   32.1011    0.5740 C   0  0  0  0  0  0  0  0  0  0  0  0
   -0.6316   30.9525    0.3388 C   0  0  0  0  0  0  0  0  0  0  0  0
   -1.6015   30.5176    1.1858 N   0  0  0  0  0  0  0  0  0  0  0  0
   -1.4972   30.4643    5.1935 C   0  0  0  0  0  0  0  0  0  0  0  0
   -2.0121   31.3698    6.1371 C   0  0  0  0  0  0  0  0  0  0  0  0
   -1.1572   32.0507    7.0088 C   0  0  0  0  0  0  0  0  0  0  0  0
    0.2207   31.8487    6.9447 C   0  0  0  0  0  0  0  0  0  0  0  0
    0.7413   30.9529    6.0186 C   0  0  0  0  0  0  0  0  0  0  0  0
    2.4384   30.7275    5.8946 Cl  0  0  0  0  0  0  0  0  0  0  0  0
   -0.1059   30.2575    5.1532 C   0  0  0  0  0  0  0  0  0  0  0  0
  1  2  1  0
  2  3  1  0
  3  4  1  0
  4  5  2  0
  5  6  1  0
  6  7  2  0
  7  8  1  0
  8  9  2  0
  2 10  1  0
 10 11  2  0
 11 12  1  0
 12 13  2  0
 13 14  1  0
 14 15  1  0
 14 16  2  0
  9  4  1  0
 16 10  1  0
M  CHG  2   3   1   6   1
M  END
>  <Energy>  (837) 
86.604873846877439

>  <Energy_Delta>  (837) 
0

>  <std_smi>  (837) 
CC(Nc1cnccn1)c1cccc(Cl)c1

>  <enum_smi>  (837) 
CC([NH2+]c1c[nH+]ccn1)c1cccc(Cl)c1

>  <enum_code>  (837) 
M

>  <parent_uuid>  (837) 
6620cc01-fc2b-4cc4-81f0-045e40704b17

>  <o3da_score>  (837) 
60.749294079495698

>  <o3da_score_rel>  (837) 
0.24185176635253719

>  <o3da_align>  (837) 
0.51721970686066043

>  <RMSD>  (837) 
9.3221359545118891e-05

>  <CONVERGED>  (837) 
0

>  <ENERGY>  (837) 
86.604873754699938

$$$$
9ca5f2d5-e2a0-42e3-9b0c-c08d47b02df7
     RDKit          3D

 16 17  0  0  0  0  0  0  0  0999 V2000
   -6.1948   28.3518    5.3251 C   0  0  0  0  0  0  0  0  0  0  0  0
   -4.7249   28.1466    4.9560 C   0  0  0  0  0  0  0  0  0  0  0  0
   -4.4484   28.9429    3.7083 N   0  0  0  0  0  4  0  0  0  0  0  0
   -3.0444   29.0321    3.3767 C   0  0  0  0  0  0  0  0  0  0  0  0
   -2.3661   28.1163    2.5626 C   0  0  0  0  0  0  0  0  0  0  0  0
   -1.0484   28.3176    2.3276 N   0  0  0  0  0  4  0  0  0  0  0  0
   -0.3929   29.3777    2.8448 C   0  0  0  0  0  0  0  0  0  0  0  0
   -1.1149   30.2651    3.6323 C   0  0  0  0  0  0  0  0  0  0  0  0
   -2.4374   30.1030    3.9009 N   0  0  0  0  0  0  0  0  0  0  0  0
   -4.3486   26.6891    4.7776 C   0  0  0  0  0  0  0  0  0  0  0  0
   -5.0916   25.8179    3.9625 C   0  0  0  0  0  0  0  0  0  0  0  0
   -4.6761   24.4970    3.7701 C   0  0  0  0  0  0  0  0  0  0  0  0
   -3.5106   24.0300    4.3759 C   0  0  0  0  0  0  0  0  0  0  0  0
   -2.7697   24.8810    5.1873 C   0  0  0  0  0  0  0  0  0  0  0  0
   -1.3076   24.3362    5.9028 Cl  0  0  0  0  0  0  0  0  0  0  0  0
   -3.1844   26.1979    5.3968 C   0  0  0  0  0  0  0  0  0  0  0  0
  1  2  1  0
  2  3  1  0
  3  4  1  0
  4  5  2  0
  5  6  1  0
  6  7  2  0
  7  8  1  0
  8  9  2  0
  2 10  1  0
 10 11  2  0
 11 12  1  0
 12 13  2  0
 13 14  1  0
 14 15  1  0
 14 16  2  0
  9  4  1  0
 16 10  1  0
M  CHG  2   3   1   6   1
M  END
>  <Energy>  (838) 
86.60487390097623

>  <Energy_Delta>  (838) 
5.4098791224532761e-08

>  <std_smi>  (838) 
CC(Nc1cnccn1)c1cccc(Cl)c1

>  <enum_smi>  (838) 
CC([NH2+]c1c[nH+]ccn1)c1cccc(Cl)c1

>  <enum_code>  (838) 
M

>  <parent_uuid>  (838) 
6620cc01-fc2b-4cc4-81f0-045e40704b17

>  <o3da_score>  (838) 
75.542997230993691

>  <o3da_score_rel>  (838) 
0.30074764806274956

>  <o3da_align>  (838) 
0.42170557728896912

>  <RMSD>  (838) 
8.3639738595729245e-05

>  <CONVERGED>  (838) 
0

>  <ENERGY>  (838) 
86.604873753081748

$$$$
9ca5f2d5-e2a0-42e3-9b0c-c08d47b02df7
     RDKit          3D

 16 17  0  0  0  0  0  0  0  0999 V2000
   -4.8282   28.3144    6.8317 C   0  0  0  0  0  0  0  0  0  0  0  0
   -4.5891   28.1288    5.3330 C   0  0  0  0  0  0  0  0  0  0  0  0
   -3.5243   29.1055    4.9119 N   0  0  0  0  0  4  0  0  0  0  0  0
   -3.3404   29.1840    3.4808 C   0  0  0  0  0  0  0  0  0  0  0  0
   -2.4436   28.3901    2.7554 C   0  0  0  0  0  0  0  0  0  0  0  0
   -2.3478   28.5847    1.4194 N   0  0  0  0  0  4  0  0  0  0  0  0
   -3.0824   29.5242    0.7882 C   0  0  0  0  0  0  0  0  0  0  0  0
   -3.9476   30.2939    1.5551 C   0  0  0  0  0  0  0  0  0  0  0  0
   -4.0805   30.1344    2.8982 N   0  0  0  0  0  0  0  0  0  0  0  0
   -4.2236   26.7023    4.9763 C   0  0  0  0  0  0  0  0  0  0  0  0
   -5.0028   25.9944    4.0446 C   0  0  0  0  0  0  0  0  0  0  0  0
   -4.6593   24.6928    3.6704 C   0  0  0  0  0  0  0  0  0  0  0  0
   -3.5315   24.0809    4.2148 C   0  0  0  0  0  0  0  0  0  0  0  0
   -2.7583   24.7671    5.1443 C   0  0  0  0  0  0  0  0  0  0  0  0
   -1.3508   24.0365    5.8015 Cl  0  0  0  0  0  0  0  0  0  0  0  0
   -3.0990   26.0658    5.5314 C   0  0  0  0  0  0  0  0  0  0  0  0
  1  2  1  0
  2  3  1  0
  3  4  1  0
  4  5  2  0
  5  6  1  0
  6  7  2  0
  7  8  1  0
  8  9  2  0
  2 10  1  0
 10 11  2  0
 11 12  1  0
 12 13  2  0
 13 14  1  0
 14 15  1  0
 14 16  2  0
  9  4  1  0
 16 10  1  0
M  CHG  2   3   1   6   1
M  END
>  <Energy>  (839) 
87.107981428405438

>  <Energy_Delta>  (839) 
0.50310758152799906

>  <std_smi>  (839) 
CC(Nc1cnccn1)c1cccc(Cl)c1

>  <enum_smi>  (839) 
CC([NH2+]c1c[nH+]ccn1)c1cccc(Cl)c1

>  <enum_code>  (839) 
M

>  <parent_uuid>  (839) 
6620cc01-fc2b-4cc4-81f0-045e40704b17

>  <o3da_score>  (839) 
74.352250092255147

>  <o3da_score_rel>  (839) 
0.29600711069277957

>  <o3da_align>  (839) 
0.42513675491403036

>  <RMSD>  (839) 
7.2127038578754566e-05

>  <CONVERGED>  (839) 
0

>  <ENERGY>  (839) 
87.107981374546497

$$$$
9ca5f2d5-e2a0-42e3-9b0c-c08d47b02df7
     RDKit          3D

 16 17  0  0  0  0  0  0  0  0999 V2000
   -4.0887   28.5519    7.1998 C   0  0  0  0  0  0  0  0  0  0  0  0
   -3.0757   28.5591    6.0547 C   0  0  0  0  0  0  0  0  0  0  0  0
   -3.7583   29.1266    4.8393 N   0  0  0  0  0  4  0  0  0  0  0  0
   -2.8617   29.3832    3.7355 C   0  0  0  0  0  0  0  0  0  0  0  0
   -2.5584   28.4544    2.7325 C   0  0  0  0  0  0  0  0  0  0  0  0
   -1.7232   28.8326    1.7368 N   0  0  0  0  0  4  0  0  0  0  0  0
   -1.1966   30.0741    1.6903 C   0  0  0  0  0  0  0  0  0  0  0  0
   -1.5391   30.9618    2.7022 C   0  0  0  0  0  0  0  0  0  0  0  0
   -2.3710   30.6280    3.7237 N   0  0  0  0  0  0  0  0  0  0  0  0
   -2.4917   27.1866    5.7883 C   0  0  0  0  0  0  0  0  0  0  0  0
   -1.0999   26.9971    5.8470 C   0  0  0  0  0  0  0  0  0  0  0  0
   -0.5377   25.7497    5.5641 C   0  0  0  0  0  0  0  0  0  0  0  0
   -1.3538   24.6756    5.2133 C   0  0  0  0  0  0  0  0  0  0  0  0
   -2.7323   24.8481    5.1611 C   0  0  0  0  0  0  0  0  0  0  0  0
   -3.7473   23.5417    4.7028 Cl  0  0  0  0  0  0  0  0  0  0  0  0
   -3.3044   26.0895    5.4510 C   0  0  0  0  0  0  0  0  0  0  0  0
  1  2  1  0
  2  3  1  0
  3  4  1  0
  4  5  2  0
  5  6  1  0
  6  7  2  0
  7  8  1  0
  8  9  2  0
  2 10  1  0
 10 11  2  0
 11 12  1  0
 12 13  2  0
 13 14  1  0
 14 15  1  0
 14 16  2  0
  9  4  1  0
 16 10  1  0
M  CHG  2   3   1   6   1
M  END
>  <Energy>  (840) 
87.107981463000101

>  <Energy_Delta>  (840) 
0.50310761612266219

>  <std_smi>  (840) 
CC(Nc1cnccn1)c1cccc(Cl)c1

>  <enum_smi>  (840) 
CC([NH2+]c1c[nH+]ccn1)c1cccc(Cl)c1

>  <enum_code>  (840) 
M

>  <parent_uuid>  (840) 
6620cc01-fc2b-4cc4-81f0-045e40704b17

>  <o3da_score>  (840) 
75.580962747344358

>  <o3da_score_rel>  (840) 
0.30089879429957467

>  <o3da_align>  (840) 
0.40983288389114308

>  <RMSD>  (840) 
0.0002149694874730676

>  <CONVERGED>  (840) 
0

>  <ENERGY>  (840) 
87.107981734750453

$$$$
9ca5f2d5-e2a0-42e3-9b0c-c08d47b02df7
     RDKit          3D

 16 17  0  0  0  0  0  0  0  0999 V2000
   -6.0002   28.5437    4.9921 C   0  0  0  0  0  0  0  0  0  0  0  0
   -4.5930   28.0779    5.3774 C   0  0  0  0  0  0  0  0  0  0  0  0
   -3.5640   29.0504    4.8599 N   0  0  0  0  0  4  0  0  0  0  0  0
   -3.3808   29.0716    3.4258 C   0  0  0  0  0  0  0  0  0  0  0  0
   -2.5321   28.2065    2.7236 C   0  0  0  0  0  0  0  0  0  0  0  0
   -2.4369   28.3466    1.3807 N   0  0  0  0  0  4  0  0  0  0  0  0
   -3.1202   29.3046    0.7206 C   0  0  0  0  0  0  0  0  0  0  0  0
   -3.9292   30.1529    1.4651 C   0  0  0  0  0  0  0  0  0  0  0  0
   -4.0602   30.0484    2.8138 N   0  0  0  0  0  0  0  0  0  0  0  0
   -4.2416   26.6446    5.0277 C   0  0  0  0  0  0  0  0  0  0  0  0
   -3.2666   25.9701    5.7864 C   0  0  0  0  0  0  0  0  0  0  0  0
   -2.8712   24.6718    5.4526 C   0  0  0  0  0  0  0  0  0  0  0  0
   -3.4326   24.0289    4.3514 C   0  0  0  0  0  0  0  0  0  0  0  0
   -4.4009   24.6804    3.5971 C   0  0  0  0  0  0  0  0  0  0  0  0
   -5.0656   23.9225    2.2071 Cl  0  0  0  0  0  0  0  0  0  0  0  0
   -4.8130   25.9732    3.9324 C   0  0  0  0  0  0  0  0  0  0  0  0
  1  2  1  0
  2  3  1  0
  3  4  1  0
  4  5  2  0
  5  6  1  0
  6  7  2  0
  7  8  1  0
  8  9  2  0
  2 10  1  0
 10 11  2  0
 11 12  1  0
 12 13  2  0
 13 14  1  0
 14 15  1  0
 14 16  2  0
  9  4  1  0
 16 10  1  0
M  CHG  2   3   1   6   1
M  END
>  <Energy>  (841) 
88.499914040632717

>  <Energy_Delta>  (841) 
1.8950401937552783

>  <std_smi>  (841) 
CC(Nc1cnccn1)c1cccc(Cl)c1

>  <enum_smi>  (841) 
CC([NH2+]c1c[nH+]ccn1)c1cccc(Cl)c1

>  <enum_code>  (841) 
M

>  <parent_uuid>  (841) 
6620cc01-fc2b-4cc4-81f0-045e40704b17

>  <o3da_score>  (841) 
69.408742777413792

>  <o3da_score_rel>  (841) 
0.27632628980115687

>  <o3da_align>  (841) 
0.53858848274544768

>  <RMSD>  (841) 
6.5453607942583114e-05

>  <CONVERGED>  (841) 
0

>  <ENERGY>  (841) 
88.49991376555964

$$$$
9ca5f2d5-e2a0-42e3-9b0c-c08d47b02df7
     RDKit          3D

 16 17  0  0  0  0  0  0  0  0999 V2000
   -4.9322   30.2466    4.1662 C   0  0  0  0  0  0  0  0  0  0  0  0
   -4.9349   28.7786    3.7424 C   0  0  0  0  0  0  0  0  0  0  0  0
   -4.6356   27.9484    4.9578 N   0  0  0  0  0  4  0  0  0  0  0  0
   -4.3038   26.5620    4.7279 C   0  0  0  0  0  0  0  0  0  0  0  0
   -5.1314   25.6206    4.1088 C   0  0  0  0  0  0  0  0  0  0  0  0
   -4.6639   24.3589    3.9542 N   0  0  0  0  0  4  0  0  0  0  0  0
   -3.4365   24.0013    4.3872 C   0  0  0  0  0  0  0  0  0  0  0  0
   -2.6611   24.9693    5.0099 C   0  0  0  0  0  0  0  0  0  0  0  0
   -3.0884   26.2456    5.1908 N   0  0  0  0  0  0  0  0  0  0  0  0
   -4.0070   28.5305    2.5708 C   0  0  0  0  0  0  0  0  0  0  0  0
   -4.5433   28.2334    1.3056 C   0  0  0  0  0  0  0  0  0  0  0  0
   -3.7044   27.9782    0.2174 C   0  0  0  0  0  0  0  0  0  0  0  0
   -2.3201   28.0142    0.3750 C   0  0  0  0  0  0  0  0  0  0  0  0
   -1.7775   28.3226    1.6172 C   0  0  0  0  0  0  0  0  0  0  0  0
   -0.0738   28.3515    1.8298 Cl  0  0  0  0  0  0  0  0  0  0  0  0
   -2.6085   28.5908    2.7077 C   0  0  0  0  0  0  0  0  0  0  0  0
  1  2  1  0
  2  3  1  0
  3  4  1  0
  4  5  2  0
  5  6  1  0
  6  7  2  0
  7  8  1  0
  8  9  2  0
  2 10  1  0
 10 11  2  0
 11 12  1  0
 12 13  2  0
 13 14  1  0
 14 15  1  0
 14 16  2  0
  9  4  1  0
 16 10  1  0
M  CHG  2   3   1   6   1
M  END
>  <Energy>  (842) 
90.285277059184835

>  <Energy_Delta>  (842) 
3.6804032123073966

>  <std_smi>  (842) 
CC(Nc1cnccn1)c1cccc(Cl)c1

>  <enum_smi>  (842) 
CC([NH2+]c1c[nH+]ccn1)c1cccc(Cl)c1

>  <enum_code>  (842) 
M

>  <parent_uuid>  (842) 
6620cc01-fc2b-4cc4-81f0-045e40704b17

>  <o3da_score>  (842) 
66.75942187484074

>  <o3da_score_rel>  (842) 
0.26577895835260501

>  <o3da_align>  (842) 
0.33838078785856268

>  <RMSD>  (842) 
7.2094719181050722e-05

>  <CONVERGED>  (842) 
0

>  <ENERGY>  (842) 
90.285276937443257

$$$$
9ca5f2d5-e2a0-42e3-9b0c-c08d47b02df7
     RDKit          3D

 16 17  0  0  0  0  0  0  0  0999 V2000
   -4.4166   30.3734    4.7172 C   0  0  0  0  0  0  0  0  0  0  0  0
   -3.6774   29.0477    4.8928 C   0  0  0  0  0  0  0  0  0  0  0  0
   -4.7061   27.9603    5.0165 N   0  0  0  0  0  4  0  0  0  0  0  0
   -4.2289   26.6026    4.8981 C   0  0  0  0  0  0  0  0  0  0  0  0
   -3.2795   25.9999    5.7287 C   0  0  0  0  0  0  0  0  0  0  0  0
   -2.9262   24.7176    5.4737 N   0  0  0  0  0  4  0  0  0  0  0  0
   -3.4721   24.0230    4.4531 C   0  0  0  0  0  0  0  0  0  0  0  0
   -4.4219   24.6620    3.6686 C   0  0  0  0  0  0  0  0  0  0  0  0
   -4.8107   25.9446    3.8880 N   0  0  0  0  0  0  0  0  0  0  0  0
   -2.6581   28.8232    3.7947 C   0  0  0  0  0  0  0  0  0  0  0  0
   -1.2854   28.8932    4.0907 C   0  0  0  0  0  0  0  0  0  0  0  0
   -0.3292   28.6661    3.0972 C   0  0  0  0  0  0  0  0  0  0  0  0
   -0.7272   28.3649    1.7959 C   0  0  0  0  0  0  0  0  0  0  0  0
   -2.0814   28.3085    1.4869 C   0  0  0  0  0  0  0  0  0  0  0  0
   -2.5856   27.9196   -0.1078 Cl  0  0  0  0  0  0  0  0  0  0  0  0
   -3.0442   28.5460    2.4710 C   0  0  0  0  0  0  0  0  0  0  0  0
  1  2  1  0
  2  3  1  0
  3  4  1  0
  4  5  2  0
  5  6  1  0
  6  7  2  0
  7  8  1  0
  8  9  2  0
  2 10  1  0
 10 11  2  0
 11 12  1  0
 12 13  2  0
 13 14  1  0
 14 15  1  0
 14 16  2  0
  9  4  1  0
 16 10  1  0
M  CHG  2   3   1   6   1
M  END
>  <Energy>  (843) 
90.285277322878613

>  <Energy_Delta>  (843) 
3.6804034760011746

>  <std_smi>  (843) 
CC(Nc1cnccn1)c1cccc(Cl)c1

>  <enum_smi>  (843) 
CC([NH2+]c1c[nH+]ccn1)c1cccc(Cl)c1

>  <enum_code>  (843) 
M

>  <parent_uuid>  (843) 
6620cc01-fc2b-4cc4-81f0-045e40704b17

>  <o3da_score>  (843) 
75.848405860942819

>  <o3da_score_rel>  (843) 
0.30196352419319233

>  <o3da_align>  (843) 
0.55951288033888713

>  <RMSD>  (843) 
0.00017044777501065694

>  <CONVERGED>  (843) 
0

>  <ENERGY>  (843) 
90.285276935182281

$$$$
9ca5f2d5-e2a0-42e3-9b0c-c08d47b02df7
     RDKit          3D

 16 17  0  0  0  0  0  0  0  0999 V2000
   -0.3816   27.7984    2.2565 C   0  0  0  0  0  0  0  0  0  0  0  0
   -1.6674   28.4335    2.7902 C   0  0  0  0  0  0  0  0  0  0  0  0
   -2.2141   29.4228    1.8046 N   0  0  0  0  0  4  0  0  0  0  0  0
   -1.4561   30.6384    1.6595 C   0  0  0  0  0  0  0  0  0  0  0  0
   -1.5487   31.7333    2.5258 C   0  0  0  0  0  0  0  0  0  0  0  0
   -0.8160   32.8377    2.2469 N   0  0  0  0  0  4  0  0  0  0  0  0
   -0.0171   32.8999    1.1606 C   0  0  0  0  0  0  0  0  0  0  0  0
    0.0309   31.7905    0.3272 C   0  0  0  0  0  0  0  0  0  0  0  0
   -0.6871   30.6619    0.5653 N   0  0  0  0  0  0  0  0  0  0  0  0
   -2.7448   27.4199    3.1168 C   0  0  0  0  0  0  0  0  0  0  0  0
   -3.1174   26.4088    2.2140 C   0  0  0  0  0  0  0  0  0  0  0  0
   -4.1467   25.5162    2.5285 C   0  0  0  0  0  0  0  0  0  0  0  0
   -4.8248   25.6226    3.7415 C   0  0  0  0  0  0  0  0  0  0  0  0
   -4.4686   26.6199    4.6409 C   0  0  0  0  0  0  0  0  0  0  0  0
   -5.3024   26.7738    6.1348 Cl  0  0  0  0  0  0  0  0  0  0  0  0
   -3.4391   27.5145    4.3364 C   0  0  0  0  0  0  0  0  0  0  0  0
  1  2  1  0
  2  3  1  0
  3  4  1  0
  4  5  2  0
  5  6  1  0
  6  7  2  0
  7  8  1  0
  8  9  2  0
  2 10  1  0
 10 11  2  0
 11 12  1  0
 12 13  2  0
 13 14  1  0
 14 15  1  0
 14 16  2  0
  9  4  1  0
 16 10  1  0
M  CHG  2   3   1   6   1
M  END
>  <Energy>  (844) 
91.88630677893579

>  <Energy_Delta>  (844) 
5.2814329320583511

>  <std_smi>  (844) 
CC(Nc1cnccn1)c1cccc(Cl)c1

>  <enum_smi>  (844) 
CC([NH2+]c1c[nH+]ccn1)c1cccc(Cl)c1

>  <enum_code>  (844) 
M

>  <parent_uuid>  (844) 
6620cc01-fc2b-4cc4-81f0-045e40704b17

>  <o3da_score>  (844) 
69.433255968689139

>  <o3da_score_rel>  (844) 
0.27642388037728971

>  <o3da_align>  (844) 
0.48817319946327226

>  <RMSD>  (844) 
6.42041357620214e-05

>  <CONVERGED>  (844) 
0

>  <ENERGY>  (844) 
91.886306748104673

$$$$
9ca5f2d5-e2a0-42e3-9b0c-c08d47b02df7
     RDKit          3D

 16 17  0  0  0  0  0  0  0  0999 V2000
   -5.6866   28.5070    5.0817 C   0  0  0  0  0  0  0  0  0  0  0  0
   -4.2718   28.0581    4.7099 C   0  0  0  0  0  0  0  0  0  0  0  0
   -3.8740   28.6214    3.3781 N   0  0  0  0  0  4  0  0  0  0  0  0
   -3.6287   30.0400    3.3521 C   0  0  0  0  0  0  0  0  0  0  0  0
   -2.4302   30.6402    3.7537 C   0  0  0  0  0  0  0  0  0  0  0  0
   -2.3114   31.9838    3.6315 N   0  0  0  0  0  4  0  0  0  0  0  0
   -3.3116   32.7389    3.1299 C   0  0  0  0  0  0  0  0  0  0  0  0
   -4.4759   32.0933    2.7361 C   0  0  0  0  0  0  0  0  0  0  0  0
   -4.6401   30.7484    2.8381 N   0  0  0  0  0  0  0  0  0  0  0  0
   -4.1119   26.5521    4.6731 C   0  0  0  0  0  0  0  0  0  0  0  0
   -5.0125   25.7221    3.9830 C   0  0  0  0  0  0  0  0  0  0  0  0
   -4.8113   24.3393    3.9316 C   0  0  0  0  0  0  0  0  0  0  0  0
   -3.7072   23.7647    4.5587 C   0  0  0  0  0  0  0  0  0  0  0  0
   -2.8077   24.5746    5.2409 C   0  0  0  0  0  0  0  0  0  0  0  0
   -1.4344   23.8847    6.0083 Cl  0  0  0  0  0  0  0  0  0  0  0  0
   -3.0023   25.9571    5.3001 C   0  0  0  0  0  0  0  0  0  0  0  0
  1  2  1  0
  2  3  1  0
  3  4  1  0
  4  5  2  0
  5  6  1  0
  6  7  2  0
  7  8  1  0
  8  9  2  0
  2 10  1  0
 10 11  2  0
 11 12  1  0
 12 13  2  0
 13 14  1  0
 14 15  1  0
 14 16  2  0
  9  4  1  0
 16 10  1  0
M  CHG  2   3   1   6   1
M  END
>  <Energy>  (845) 
91.886307048660328

>  <Energy_Delta>  (845) 
5.2814332017828889

>  <std_smi>  (845) 
CC(Nc1cnccn1)c1cccc(Cl)c1

>  <enum_smi>  (845) 
CC([NH2+]c1c[nH+]ccn1)c1cccc(Cl)c1

>  <enum_code>  (845) 
M

>  <parent_uuid>  (845) 
6620cc01-fc2b-4cc4-81f0-045e40704b17

>  <o3da_score>  (845) 
71.147283179230527

>  <o3da_score_rel>  (845) 
0.2832476717435447

>  <o3da_align>  (845) 
0.37810256836735412

>  <RMSD>  (845) 
0.00010128441045792794

>  <CONVERGED>  (845) 
0

>  <ENERGY>  (845) 
91.886306748016736

$$$$
9ca5f2d5-e2a0-42e3-9b0c-c08d47b02df7
     RDKit          3D

 16 17  0  0  0  0  0  0  0  0999 V2000
   -4.3173   30.8189    3.3631 C   0  0  0  0  0  0  0  0  0  0  0  0
   -3.5712   29.6064    2.8023 C   0  0  0  0  0  0  0  0  0  0  0  0
   -2.0974   29.7441    3.0620 N   0  0  0  0  0  4  0  0  0  0  0  0
   -1.4290   30.7279    2.2490 C   0  0  0  0  0  0  0  0  0  0  0  0
   -1.0938   32.0127    2.6906 C   0  0  0  0  0  0  0  0  0  0  0  0
   -0.4188   32.8283    1.8461 N   0  0  0  0  0  4  0  0  0  0  0  0
   -0.0622   32.4250    0.6084 C   0  0  0  0  0  0  0  0  0  0  0  0
   -0.4087   31.1374    0.2220 C   0  0  0  0  0  0  0  0  0  0  0  0
   -1.0851   30.2839    1.0347 N   0  0  0  0  0  0  0  0  0  0  0  0
   -4.0510   28.2918    3.3843 C   0  0  0  0  0  0  0  0  0  0  0  0
   -4.2744   27.1956    2.5325 C   0  0  0  0  0  0  0  0  0  0  0  0
   -4.6768   25.9601    3.0476 C   0  0  0  0  0  0  0  0  0  0  0  0
   -4.8544   25.7957    4.4198 C   0  0  0  0  0  0  0  0  0  0  0  0
   -4.6316   26.8694    5.2734 C   0  0  0  0  0  0  0  0  0  0  0  0
   -4.8323   26.6794    6.9691 Cl  0  0  0  0  0  0  0  0  0  0  0  0
   -4.2310   28.1094    4.7669 C   0  0  0  0  0  0  0  0  0  0  0  0
  1  2  1  0
  2  3  1  0
  3  4  1  0
  4  5  2  0
  5  6  1  0
  6  7  2  0
  7  8  1  0
  8  9  2  0
  2 10  1  0
 10 11  2  0
 11 12  1  0
 12 13  2  0
 13 14  1  0
 14 15  1  0
 14 16  2  0
  9  4  1  0
 16 10  1  0
M  CHG  2   3   1   6   1
M  END
>  <Energy>  (846) 
91.896513416631905

>  <Energy_Delta>  (846) 
5.2916395697544658

>  <std_smi>  (846) 
CC(Nc1cnccn1)c1cccc(Cl)c1

>  <enum_smi>  (846) 
CC([NH2+]c1c[nH+]ccn1)c1cccc(Cl)c1

>  <enum_code>  (846) 
M

>  <parent_uuid>  (846) 
6620cc01-fc2b-4cc4-81f0-045e40704b17

>  <o3da_score>  (846) 
66.720160349553794

>  <o3da_score_rel>  (846) 
0.26562265251589989

>  <o3da_align>  (846) 
0.55062713635611027

>  <RMSD>  (846) 
4.4159600625898777e-05

>  <CONVERGED>  (846) 
0

>  <ENERGY>  (846) 
91.896513402964942

$$$$
9ca5f2d5-e2a0-42e3-9b0c-c08d47b02df7
     RDKit          3D

 16 17  0  0  0  0  0  0  0  0999 V2000
   -3.0458   29.7933    5.6587 C   0  0  0  0  0  0  0  0  0  0  0  0
   -3.3528   28.8432    4.4991 C   0  0  0  0  0  0  0  0  0  0  0  0
   -3.6786   29.6308    3.2614 N   0  0  0  0  0  4  0  0  0  0  0  0
   -2.5499   30.2754    2.6399 C   0  0  0  0  0  0  0  0  0  0  0  0
   -2.2430   31.6326    2.7880 C   0  0  0  0  0  0  0  0  0  0  0  0
   -1.1826   32.1310    2.1088 N   0  0  0  0  0  4  0  0  0  0  0  0
   -0.4345   31.3540    1.2975 C   0  0  0  0  0  0  0  0  0  0  0  0
   -0.7869   30.0167    1.1761 C   0  0  0  0  0  0  0  0  0  0  0  0
   -1.8420   29.4724    1.8372 N   0  0  0  0  0  0  0  0  0  0  0  0
   -4.4991   27.8966    4.7939 C   0  0  0  0  0  0  0  0  0  0  0  0
   -4.3783   26.5353    4.4628 C   0  0  0  0  0  0  0  0  0  0  0  0
   -5.4357   25.6487    4.6853 C   0  0  0  0  0  0  0  0  0  0  0  0
   -6.6323   26.1064    5.2331 C   0  0  0  0  0  0  0  0  0  0  0  0
   -6.7671   27.4503    5.5597 C   0  0  0  0  0  0  0  0  0  0  0  0
   -8.2409   28.0333    6.2227 Cl  0  0  0  0  0  0  0  0  0  0  0  0
   -5.7141   28.3440    5.3427 C   0  0  0  0  0  0  0  0  0  0  0  0
  1  2  1  0
  2  3  1  0
  3  4  1  0
  4  5  2  0
  5  6  1  0
  6  7  2  0
  7  8  1  0
  8  9  2  0
  2 10  1  0
 10 11  2  0
 11 12  1  0
 12 13  2  0
 13 14  1  0
 14 15  1  0
 14 16  2  0
  9  4  1  0
 16 10  1  0
M  CHG  2   3   1   6   1
M  END
>  <Energy>  (847) 
91.896513437185234

>  <Energy_Delta>  (847) 
5.2916395903077955

>  <std_smi>  (847) 
CC(Nc1cnccn1)c1cccc(Cl)c1

>  <enum_smi>  (847) 
CC([NH2+]c1c[nH+]ccn1)c1cccc(Cl)c1

>  <enum_code>  (847) 
M

>  <parent_uuid>  (847) 
6620cc01-fc2b-4cc4-81f0-045e40704b17

>  <o3da_score>  (847) 
65.376651221665

>  <o3da_score_rel>  (847) 
0.26027394747143529

>  <o3da_align>  (847) 
0.64683083043658796

>  <RMSD>  (847) 
0.00012561061966726573

>  <CONVERGED>  (847) 
0

>  <ENERGY>  (847) 
91.896513479537546

$$$$
9ca5f2d5-e2a0-42e3-9b0c-c08d47b02df7
     RDKit          3D

 16 17  0  0  0  0  0  0  0  0999 V2000
   -4.1642   31.4288    3.9069 C   0  0  0  0  0  0  0  0  0  0  0  0
   -3.4359   30.1167    3.6079 C   0  0  0  0  0  0  0  0  0  0  0  0
   -1.9512   30.3260    3.7136 N   0  0  0  0  0  4  0  0  0  0  0  0
   -1.3603   31.0258    2.6018 C   0  0  0  0  0  0  0  0  0  0  0  0
   -1.0381   32.3871    2.6107 C   0  0  0  0  0  0  0  0  0  0  0  0
   -0.4384   32.9140    1.5166 N   0  0  0  0  0  4  0  0  0  0  0  0
   -0.1434   32.1570    0.4386 C   0  0  0  0  0  0  0  0  0  0  0  0
   -0.4735   30.8094    0.4839 C   0  0  0  0  0  0  0  0  0  0  0  0
   -1.0751   30.2371    1.5593 N   0  0  0  0  0  0  0  0  0  0  0  0
   -3.8337   28.9730    4.5197 C   0  0  0  0  0  0  0  0  0  0  0  0
   -4.0678   29.1437    5.8947 C   0  0  0  0  0  0  0  0  0  0  0  0
   -4.3872   28.0490    6.7046 C   0  0  0  0  0  0  0  0  0  0  0  0
   -4.4676   26.7687    6.1596 C   0  0  0  0  0  0  0  0  0  0  0  0
   -4.2308   26.5845    4.8031 C   0  0  0  0  0  0  0  0  0  0  0  0
   -4.3125   25.0112    4.1191 Cl  0  0  0  0  0  0  0  0  0  0  0  0
   -3.9136   27.6726    3.9862 C   0  0  0  0  0  0  0  0  0  0  0  0
  1  2  1  0
  2  3  1  0
  3  4  1  0
  4  5  2  0
  5  6  1  0
  6  7  2  0
  7  8  1  0
  8  9  2  0
  2 10  1  0
 10 11  2  0
 11 12  1  0
 12 13  2  0
 13 14  1  0
 14 15  1  0
 14 16  2  0
  9  4  1  0
 16 10  1  0
M  CHG  2   3   1   6   1
M  END
>  <Energy>  (848) 
92.117558997857031

>  <Energy_Delta>  (848) 
5.5126851509795927

>  <std_smi>  (848) 
CC(Nc1cnccn1)c1cccc(Cl)c1

>  <enum_smi>  (848) 
CC([NH2+]c1c[nH+]ccn1)c1cccc(Cl)c1

>  <enum_code>  (848) 
M

>  <parent_uuid>  (848) 
6620cc01-fc2b-4cc4-81f0-045e40704b17

>  <o3da_score>  (848) 
74.326882941646531

>  <o3da_score_rel>  (848) 
0.29590612038046427

>  <o3da_align>  (848) 
0.44105312971113819

>  <RMSD>  (848) 
6.1832744986600323e-05

>  <CONVERGED>  (848) 
0

>  <ENERGY>  (848) 
92.117558979437106

$$$$
9ca5f2d5-e2a0-42e3-9b0c-c08d47b02df7
     RDKit          3D

 16 17  0  0  0  0  0  0  0  0999 V2000
   -5.8305   28.5010    4.9137 C   0  0  0  0  0  0  0  0  0  0  0  0
   -4.3820   28.0635    4.6862 C   0  0  0  0  0  0  0  0  0  0  0  0
   -3.8831   28.6215    3.3828 N   0  0  0  0  0  4  0  0  0  0  0  0
   -3.5618   30.0255    3.4115 C   0  0  0  0  0  0  0  0  0  0  0  0
   -4.4046   31.0352    2.9350 C   0  0  0  0  0  0  0  0  0  0  0  0
   -3.9621   32.3147    2.9732 N   0  0  0  0  0  4  0  0  0  0  0  0
   -2.7372   32.6251    3.4479 C   0  0  0  0  0  0  0  0  0  0  0  0
   -1.9349   31.5858    3.8987 C   0  0  0  0  0  0  0  0  0  0  0  0
   -2.3361   30.2878    3.8794 N   0  0  0  0  0  0  0  0  0  0  0  0
   -4.1895   26.5600    4.6790 C   0  0  0  0  0  0  0  0  0  0  0  0
   -5.1058   25.6795    4.0790 C   0  0  0  0  0  0  0  0  0  0  0  0
   -4.8613   24.3026    4.0570 C   0  0  0  0  0  0  0  0  0  0  0  0
   -3.6974   23.7842    4.6219 C   0  0  0  0  0  0  0  0  0  0  0  0
   -2.7791   24.6442    5.2114 C   0  0  0  0  0  0  0  0  0  0  0  0
   -1.3335   24.0224    5.8996 Cl  0  0  0  0  0  0  0  0  0  0  0  0
   -3.0164   26.0206    5.2402 C   0  0  0  0  0  0  0  0  0  0  0  0
  1  2  1  0
  2  3  1  0
  3  4  1  0
  4  5  2  0
  5  6  1  0
  6  7  2  0
  7  8  1  0
  8  9  2  0
  2 10  1  0
 10 11  2  0
 11 12  1  0
 12 13  2  0
 13 14  1  0
 14 15  1  0
 14 16  2  0
  9  4  1  0
 16 10  1  0
M  CHG  2   3   1   6   1
M  END
>  <Energy>  (849) 
92.117559007926104

>  <Energy_Delta>  (849) 
5.5126851610486653

>  <std_smi>  (849) 
CC(Nc1cnccn1)c1cccc(Cl)c1

>  <enum_smi>  (849) 
CC([NH2+]c1c[nH+]ccn1)c1cccc(Cl)c1

>  <enum_code>  (849) 
M

>  <parent_uuid>  (849) 
6620cc01-fc2b-4cc4-81f0-045e40704b17

>  <o3da_score>  (849) 
71.903635630144009

>  <o3da_score_rel>  (849) 
0.28625882074552522

>  <o3da_align>  (849) 
0.32149509750526672

>  <RMSD>  (849) 
7.0452589270556662e-05

>  <CONVERGED>  (849) 
0

>  <ENERGY>  (849) 
92.117558975389599

$$$$
9ca5f2d5-e2a0-42e3-9b0c-c08d47b02df7
     RDKit          3D

 16 17  0  0  0  0  0  0  0  0999 V2000
   -2.8497   27.3456    5.4471 C   0  0  0  0  0  0  0  0  0  0  0  0
   -3.5260   28.5838    4.8553 C   0  0  0  0  0  0  0  0  0  0  0  0
   -4.9039   28.2511    4.3647 N   0  0  0  0  0  4  0  0  0  0  0  0
   -5.8724   27.9444    5.3851 C   0  0  0  0  0  0  0  0  0  0  0  0
   -6.5713   28.9041    6.1251 C   0  0  0  0  0  0  0  0  0  0  0  0
   -7.4949   28.4785    7.0199 N   0  0  0  0  0  4  0  0  0  0  0  0
   -7.7521   27.1656    7.2001 C   0  0  0  0  0  0  0  0  0  0  0  0
   -7.0388   26.2545    6.4332 C   0  0  0  0  0  0  0  0  0  0  0  0
   -6.1048   26.6345    5.5227 N   0  0  0  0  0  0  0  0  0  0  0  0
   -2.7269   29.1941    3.7221 C   0  0  0  0  0  0  0  0  0  0  0  0
   -2.3569   30.5491    3.7709 C   0  0  0  0  0  0  0  0  0  0  0  0
   -1.6469   31.1332    2.7178 C   0  0  0  0  0  0  0  0  0  0  0  0
   -1.2997   30.3773    1.5996 C   0  0  0  0  0  0  0  0  0  0  0  0
   -1.6580   29.0359    1.5396 C   0  0  0  0  0  0  0  0  0  0  0  0
   -1.2442   28.0937    0.1643 Cl  0  0  0  0  0  0  0  0  0  0  0  0
   -2.3654   28.4427    2.5889 C   0  0  0  0  0  0  0  0  0  0  0  0
  1  2  1  0
  2  3  1  0
  3  4  1  0
  4  5  2  0
  5  6  1  0
  6  7  2  0
  7  8  1  0
  8  9  2  0
  2 10  1  0
 10 11  2  0
 11 12  1  0
 12 13  2  0
 13 14  1  0
 14 15  1  0
 14 16  2  0
  9  4  1  0
 16 10  1  0
M  CHG  2   3   1   6   1
M  END
>  <Energy>  (850) 
92.176496896671921

>  <Energy_Delta>  (850) 
5.5716230497944821

>  <std_smi>  (850) 
CC(Nc1cnccn1)c1cccc(Cl)c1

>  <enum_smi>  (850) 
CC([NH2+]c1c[nH+]ccn1)c1cccc(Cl)c1

>  <enum_code>  (850) 
M

>  <parent_uuid>  (850) 
6620cc01-fc2b-4cc4-81f0-045e40704b17

>  <o3da_score>  (850) 
68.023135893771737

>  <o3da_score_rel>  (850) 
0.27080998747440815

>  <o3da_align>  (850) 
0.57729823754697107

>  <RMSD>  (850) 
6.4862123899284417e-05

>  <CONVERGED>  (850) 
0

>  <ENERGY>  (850) 
92.176496831573417

$$$$
9ca5f2d5-e2a0-42e3-9b0c-c08d47b02df7
     RDKit          3D

 16 17  0  0  0  0  0  0  0  0999 V2000
   -3.8846   26.6810    1.3811 C   0  0  0  0  0  0  0  0  0  0  0  0
   -3.1353   27.0683    2.6576 C   0  0  0  0  0  0  0  0  0  0  0  0
   -1.9672   26.1548    2.8838 N   0  0  0  0  0  4  0  0  0  0  0  0
   -2.2953   24.7965    3.2310 C   0  0  0  0  0  0  0  0  0  0  0  0
   -2.6373   24.3708    4.5190 C   0  0  0  0  0  0  0  0  0  0  0  0
   -2.8725   23.0519    4.7189 N   0  0  0  0  0  4  0  0  0  0  0  0
   -2.7764   22.1564    3.7133 C   0  0  0  0  0  0  0  0  0  0  0  0
   -2.4234   22.6289    2.4566 C   0  0  0  0  0  0  0  0  0  0  0  0
   -2.1765   23.9417    2.2092 N   0  0  0  0  0  0  0  0  0  0  0  0
   -2.6489   28.5027    2.6309 C   0  0  0  0  0  0  0  0  0  0  0  0
   -3.0018   29.3857    3.6659 C   0  0  0  0  0  0  0  0  0  0  0  0
   -2.5340   30.7031    3.6704 C   0  0  0  0  0  0  0  0  0  0  0  0
   -1.7048   31.1580    2.6468 C   0  0  0  0  0  0  0  0  0  0  0  0
   -1.3498   30.2956    1.6165 C   0  0  0  0  0  0  0  0  0  0  0  0
   -0.3218   30.8396    0.3525 Cl  0  0  0  0  0  0  0  0  0  0  0  0
   -1.8148   28.9776    1.6022 C   0  0  0  0  0  0  0  0  0  0  0  0
  1  2  1  0
  2  3  1  0
  3  4  1  0
  4  5  2  0
  5  6  1  0
  6  7  2  0
  7  8  1  0
  8  9  2  0
  2 10  1  0
 10 11  2  0
 11 12  1  0
 12 13  2  0
 13 14  1  0
 14 15  1  0
 14 16  2  0
  9  4  1  0
 16 10  1  0
M  CHG  2   3   1   6   1
M  END
>  <Energy>  (851) 
92.176496909963845

>  <Energy_Delta>  (851) 
5.5716230630864061

>  <std_smi>  (851) 
CC(Nc1cnccn1)c1cccc(Cl)c1

>  <enum_smi>  (851) 
CC([NH2+]c1c[nH+]ccn1)c1cccc(Cl)c1

>  <enum_code>  (851) 
M

>  <parent_uuid>  (851) 
6620cc01-fc2b-4cc4-81f0-045e40704b17

>  <o3da_score>  (851) 
67.078253019346064

>  <o3da_score_rel>  (851) 
0.267048271463732

>  <o3da_align>  (851) 
0.37345922230265194

>  <RMSD>  (851) 
8.2631903485035717e-05

>  <CONVERGED>  (851) 
0

>  <ENERGY>  (851) 
92.176496831932198

$$$$
9ca5f2d5-e2a0-42e3-9b0c-c08d47b02df7
     RDKit          3D

 16 17  0  0  0  0  0  0  0  0999 V2000
   -3.3247   29.8224    4.1672 C   0  0  0  0  0  0  0  0  0  0  0  0
   -3.3917   28.5071    4.9499 C   0  0  0  0  0  0  0  0  0  0  0  0
   -4.7639   27.9164    4.7325 N   0  0  0  0  0  4  0  0  0  0  0  0
   -4.8849   26.8285    3.7912 C   0  0  0  0  0  0  0  0  0  0  0  0
   -4.6783   26.9161    2.4118 C   0  0  0  0  0  0  0  0  0  0  0  0
   -4.8176   25.7920    1.6695 N   0  0  0  0  0  4  0  0  0  0  0  0
   -5.1561   24.6117    2.2295 C   0  0  0  0  0  0  0  0  0  0  0  0
   -5.3705   24.5823    3.6002 C   0  0  0  0  0  0  0  0  0  0  0  0
   -5.2468   25.6839    4.3846 N   0  0  0  0  0  0  0  0  0  0  0  0
   -2.2507   27.5308    4.7176 C   0  0  0  0  0  0  0  0  0  0  0  0
   -1.3057   27.6845    3.6883 C   0  0  0  0  0  0  0  0  0  0  0  0
   -0.2958   26.7359    3.4948 C   0  0  0  0  0  0  0  0  0  0  0  0
   -0.2130   25.6164    4.3200 C   0  0  0  0  0  0  0  0  0  0  0  0
   -1.1309   25.4556    5.3500 C   0  0  0  0  0  0  0  0  0  0  0  0
   -1.0591   24.0690    6.3595 Cl  0  0  0  0  0  0  0  0  0  0  0  0
   -2.1339   26.4053    5.5582 C   0  0  0  0  0  0  0  0  0  0  0  0
  1  2  1  0
  2  3  1  0
  3  4  1  0
  4  5  2  0
  5  6  1  0
  6  7  2  0
  7  8  1  0
  8  9  2  0
  2 10  1  0
 10 11  2  0
 11 12  1  0
 12 13  2  0
 13 14  1  0
 14 15  1  0
 14 16  2  0
  9  4  1  0
 16 10  1  0
M  CHG  2   3   1   6   1
M  END
>  <Energy>  (852) 
92.529637626444952

>  <Energy_Delta>  (852) 
5.9247637795675132

>  <std_smi>  (852) 
CC(Nc1cnccn1)c1cccc(Cl)c1

>  <enum_smi>  (852) 
CC([NH2+]c1c[nH+]ccn1)c1cccc(Cl)c1

>  <enum_code>  (852) 
M

>  <parent_uuid>  (852) 
6620cc01-fc2b-4cc4-81f0-045e40704b17

>  <o3da_score>  (852) 
54.689819688051017

>  <o3da_score_rel>  (852) 
0.21772811838353961

>  <o3da_align>  (852) 
0.72528665464603725

>  <RMSD>  (852) 
0.00012023153694774364

>  <CONVERGED>  (852) 
0

>  <ENERGY>  (852) 
92.529637517105982

$$$$
e13b9a01-5b96-4ee8-8471-2b7c9817c285
     RDKit          3D

 16 17  0  0  0  0  0  0  0  0999 V2000
   -6.2456   28.3359    5.3917 C   0  0  0  0  0  0  0  0  0  0  0  0
   -4.7711   28.1755    5.0232 C   0  0  0  0  0  0  0  0  0  0  0  0
   -4.5011   29.0310    3.8033 N   0  0  0  0  0  4  0  0  0  0  0  0
   -3.0767   29.1139    3.4540 C   0  0  0  0  0  0  0  0  0  0  0  0
   -2.3353   30.2451    3.8108 C   0  0  0  0  0  0  0  0  0  0  0  0
   -1.0242   30.3791    3.5244 N   0  0  0  0  0  0  0  0  0  0  0  0
   -0.4150   29.3730    2.8639 C   0  0  0  0  0  0  0  0  0  0  0  0
   -1.1005   28.2332    2.4861 C   0  0  0  0  0  0  0  0  0  0  0  0
   -2.4156   28.1355    2.7889 N   0  0  0  0  0  4  0  0  0  0  0  0
   -4.3660   26.7380    4.7702 C   0  0  0  0  0  0  0  0  0  0  0  0
   -5.0704   25.9103    3.8783 C   0  0  0  0  0  0  0  0  0  0  0  0
   -4.6214   24.6148    3.6069 C   0  0  0  0  0  0  0  0  0  0  0  0
   -3.4639   24.1290    4.2133 C   0  0  0  0  0  0  0  0  0  0  0  0
   -2.7654   24.9331    5.1056 C   0  0  0  0  0  0  0  0  0  0  0  0
   -1.3178   24.3644    5.8290 Cl  0  0  0  0  0  0  0  0  0  0  0  0
   -3.2109   26.2262    5.3901 C   0  0  0  0  0  0  0  0  0  0  0  0
  1  2  1  0
  2  3  1  0
  3  4  1  0
  4  5  2  0
  5  6  1  0
  6  7  2  0
  7  8  1  0
  8  9  2  0
  2 10  1  0
 10 11  2  0
 11 12  1  0
 12 13  2  0
 13 14  1  0
 14 15  1  0
 14 16  2  0
  9  4  1  0
 16 10  1  0
M  CHG  2   3   1   9   1
M  END
>  <Energy>  (853) 
110.80215078390253

>  <Energy_Delta>  (853) 
0

>  <std_smi>  (853) 
CC(Nc1cnccn1)c1cccc(Cl)c1

>  <enum_smi>  (853) 
CC([NH2+]c1cncc[nH+]1)c1cccc(Cl)c1

>  <enum_code>  (853) 
M

>  <parent_uuid>  (853) 
6620cc01-fc2b-4cc4-81f0-045e40704b17

>  <o3da_score>  (853) 
75.074919596668821

>  <o3da_score_rel>  (853) 
0.2988841629907511

>  <o3da_align>  (853) 
0.45643838119750868

>  <RMSD>  (853) 
7.2389000622349029e-05

>  <CONVERGED>  (853) 
0

>  <ENERGY>  (853) 
110.8021506848589

$$$$
e13b9a01-5b96-4ee8-8471-2b7c9817c285
     RDKit          3D

 16 17  0  0  0  0  0  0  0  0999 V2000
   -4.2937   28.7854    6.9409 C   0  0  0  0  0  0  0  0  0  0  0  0
   -4.0829   29.0021    5.4428 C   0  0  0  0  0  0  0  0  0  0  0  0
   -2.5933   29.1128    5.1942 N   0  0  0  0  0  4  0  0  0  0  0  0
   -2.2603   29.5085    3.8193 C   0  0  0  0  0  0  0  0  0  0  0  0
   -1.9137   30.8344    3.5392 C   0  0  0  0  0  0  0  0  0  0  0  0
   -1.6035   31.2614    2.2981 N   0  0  0  0  0  0  0  0  0  0  0  0
   -1.6305   30.3609    1.2941 C   0  0  0  0  0  0  0  0  0  0  0  0
   -1.9647   29.0376    1.5152 C   0  0  0  0  0  0  0  0  0  0  0  0
   -2.2679   28.6456    2.7742 N   0  0  0  0  0  4  0  0  0  0  0  0
   -4.6900   27.9114    4.5846 C   0  0  0  0  0  0  0  0  0  0  0  0
   -4.4238   26.5495    4.8104 C   0  0  0  0  0  0  0  0  0  0  0  0
   -4.9353   25.5741    3.9499 C   0  0  0  0  0  0  0  0  0  0  0  0
   -5.7116   25.9408    2.8516 C   0  0  0  0  0  0  0  0  0  0  0  0
   -5.9916   27.2827    2.6244 C   0  0  0  0  0  0  0  0  0  0  0  0
   -6.9116   27.7527    1.2551 Cl  0  0  0  0  0  0  0  0  0  0  0  0
   -5.4922   28.2645    3.4836 C   0  0  0  0  0  0  0  0  0  0  0  0
  1  2  1  0
  2  3  1  0
  3  4  1  0
  4  5  2  0
  5  6  1  0
  6  7  2  0
  7  8  1  0
  8  9  2  0
  2 10  1  0
 10 11  2  0
 11 12  1  0
 12 13  2  0
 13 14  1  0
 14 15  1  0
 14 16  2  0
  9  4  1  0
 16 10  1  0
M  CHG  2   3   1   9   1
M  END
>  <Energy>  (854) 
110.80215088652712

>  <Energy_Delta>  (854) 
1.0262458260967833e-07

>  <std_smi>  (854) 
CC(Nc1cnccn1)c1cccc(Cl)c1

>  <enum_smi>  (854) 
CC([NH2+]c1cncc[nH+]1)c1cccc(Cl)c1

>  <enum_code>  (854) 
M

>  <parent_uuid>  (854) 
6620cc01-fc2b-4cc4-81f0-045e40704b17

>  <o3da_score>  (854) 
69.675149709914407

>  <o3da_score_rel>  (854) 
0.27738689450727122

>  <o3da_align>  (854) 
0.45138836441652413

>  <RMSD>  (854) 
0.00010264189812967294

>  <CONVERGED>  (854) 
0

>  <ENERGY>  (854) 
110.80215082564182

$$$$
e13b9a01-5b96-4ee8-8471-2b7c9817c285
     RDKit          3D

 16 17  0  0  0  0  0  0  0  0999 V2000
   -4.0855   28.5286    7.2684 C   0  0  0  0  0  0  0  0  0  0  0  0
   -3.0852   28.5806    6.1142 C   0  0  0  0  0  0  0  0  0  0  0  0
   -3.7898   29.1774    4.9145 N   0  0  0  0  0  4  0  0  0  0  0  0
   -2.8908   29.4392    3.7832 C   0  0  0  0  0  0  0  0  0  0  0  0
   -2.4141   30.7347    3.5563 C   0  0  0  0  0  0  0  0  0  0  0  0
   -1.5889   31.0410    2.5343 N   0  0  0  0  0  0  0  0  0  0  0  0
   -1.2197   30.0473    1.7004 C   0  0  0  0  0  0  0  0  0  0  0  0
   -1.6614   28.7492    1.8781 C   0  0  0  0  0  0  0  0  0  0  0  0
   -2.4868   28.4798    2.9157 N   0  0  0  0  0  4  0  0  0  0  0  0
   -2.4942   27.2269    5.7802 C   0  0  0  0  0  0  0  0  0  0  0  0
   -1.0983   27.0659    5.7387 C   0  0  0  0  0  0  0  0  0  0  0  0
   -0.5333   25.8422    5.3704 C   0  0  0  0  0  0  0  0  0  0  0  0
   -1.3500   24.7634    5.0360 C   0  0  0  0  0  0  0  0  0  0  0  0
   -2.7314   24.9055    5.0868 C   0  0  0  0  0  0  0  0  0  0  0  0
   -3.7503   23.5964    4.6494 Cl  0  0  0  0  0  0  0  0  0  0  0  0
   -3.3063   26.1243    5.4581 C   0  0  0  0  0  0  0  0  0  0  0  0
  1  2  1  0
  2  3  1  0
  3  4  1  0
  4  5  2  0
  5  6  1  0
  6  7  2  0
  7  8  1  0
  8  9  2  0
  2 10  1  0
 10 11  2  0
 11 12  1  0
 12 13  2  0
 13 14  1  0
 14 15  1  0
 14 16  2  0
  9  4  1  0
 16 10  1  0
M  CHG  2   3   1   9   1
M  END
>  <Energy>  (855) 
111.06004396267367

>  <Energy_Delta>  (855) 
0.25789317877114115

>  <std_smi>  (855) 
CC(Nc1cnccn1)c1cccc(Cl)c1

>  <enum_smi>  (855) 
CC([NH2+]c1cncc[nH+]1)c1cccc(Cl)c1

>  <enum_code>  (855) 
M

>  <parent_uuid>  (855) 
6620cc01-fc2b-4cc4-81f0-045e40704b17

>  <o3da_score>  (855) 
77.636902275228252

>  <o3da_score_rel>  (855) 
0.30908378827962074

>  <o3da_align>  (855) 
0.48454818838904684

>  <RMSD>  (855) 
0.00012100253775573968

>  <CONVERGED>  (855) 
0

>  <ENERGY>  (855) 
111.0600440653409

$$$$
e13b9a01-5b96-4ee8-8471-2b7c9817c285
     RDKit          3D

 16 17  0  0  0  0  0  0  0  0999 V2000
   -4.8991   28.2891    6.8254 C   0  0  0  0  0  0  0  0  0  0  0  0
   -4.6020   28.1568    5.3322 C   0  0  0  0  0  0  0  0  0  0  0  0
   -3.5172   29.1536    4.9837 N   0  0  0  0  0  4  0  0  0  0  0  0
   -3.2551   29.2470    3.5417 C   0  0  0  0  0  0  0  0  0  0  0  0
   -3.8049   30.2976    2.7993 C   0  0  0  0  0  0  0  0  0  0  0  0
   -3.6001   30.4411    1.4740 N   0  0  0  0  0  0  0  0  0  0  0  0
   -2.8259   29.5287    0.8515 C   0  0  0  0  0  0  0  0  0  0  0  0
   -2.2574   28.4709    1.5369 C   0  0  0  0  0  0  0  0  0  0  0  0
   -2.4871   28.3587    2.8654 N   0  0  0  0  0  4  0  0  0  0  0  0
   -4.2008   26.7532    4.9295 C   0  0  0  0  0  0  0  0  0  0  0  0
   -4.8869   26.1028    3.8890 C   0  0  0  0  0  0  0  0  0  0  0  0
   -4.4912   24.8334    3.4596 C   0  0  0  0  0  0  0  0  0  0  0  0
   -3.4061   24.1956    4.0582 C   0  0  0  0  0  0  0  0  0  0  0  0
   -2.7285   24.8219    5.0972 C   0  0  0  0  0  0  0  0  0  0  0  0
   -1.3723   24.0632    5.8243 Cl  0  0  0  0  0  0  0  0  0  0  0  0
   -3.1191   26.0900    5.5369 C   0  0  0  0  0  0  0  0  0  0  0  0
  1  2  1  0
  2  3  1  0
  3  4  1  0
  4  5  2  0
  5  6  1  0
  6  7  2  0
  7  8  1  0
  8  9  2  0
  2 10  1  0
 10 11  2  0
 11 12  1  0
 12 13  2  0
 13 14  1  0
 14 15  1  0
 14 16  2  0
  9  4  1  0
 16 10  1  0
M  CHG  2   3   1   9   1
M  END
>  <Energy>  (856) 
111.06004396312508

>  <Energy_Delta>  (856) 
0.25789317922254895

>  <std_smi>  (856) 
CC(Nc1cnccn1)c1cccc(Cl)c1

>  <enum_smi>  (856) 
CC([NH2+]c1cncc[nH+]1)c1cccc(Cl)c1

>  <enum_code>  (856) 
M

>  <parent_uuid>  (856) 
6620cc01-fc2b-4cc4-81f0-045e40704b17

>  <o3da_score>  (856) 
73.07955719555676

>  <o3da_score_rel>  (856) 
0.29094033535399055

>  <o3da_align>  (856) 
0.51697889275441389

>  <RMSD>  (856) 
0.0001416459205482054

>  <CONVERGED>  (856) 
0

>  <ENERGY>  (856) 
111.06004420183174

$$$$
e13b9a01-5b96-4ee8-8471-2b7c9817c285
     RDKit          3D

 16 17  0  0  0  0  0  0  0  0999 V2000
   -5.2156   30.3628    5.2485 C   0  0  0  0  0  0  0  0  0  0  0  0
   -4.4721   29.0339    5.3989 C   0  0  0  0  0  0  0  0  0  0  0  0
   -2.9792   29.2679    5.2737 N   0  0  0  0  0  4  0  0  0  0  0  0
   -2.5061   29.5905    3.9202 C   0  0  0  0  0  0  0  0  0  0  0  0
   -2.1402   30.9034    3.6026 C   0  0  0  0  0  0  0  0  0  0  0  0
   -1.6908   31.2627    2.3827 N   0  0  0  0  0  0  0  0  0  0  0  0
   -1.5899   30.3047    1.4388 C   0  0  0  0  0  0  0  0  0  0  0  0
   -1.9302   28.9904    1.6999 C   0  0  0  0  0  0  0  0  0  0  0  0
   -2.3736   28.6672    2.9367 N   0  0  0  0  0  4  0  0  0  0  0  0
   -4.9223   27.8962    4.5041 C   0  0  0  0  0  0  0  0  0  0  0  0
   -4.6424   26.5706    4.8875 C   0  0  0  0  0  0  0  0  0  0  0  0
   -4.9696   25.4998    4.0518 C   0  0  0  0  0  0  0  0  0  0  0  0
   -5.5757   25.7316    2.8189 C   0  0  0  0  0  0  0  0  0  0  0  0
   -5.8710   27.0333    2.4331 C   0  0  0  0  0  0  0  0  0  0  0  0
   -6.5773   27.3381    0.8994 Cl  0  0  0  0  0  0  0  0  0  0  0  0
   -5.5552   28.1106    3.2668 C   0  0  0  0  0  0  0  0  0  0  0  0
  1  2  1  0
  2  3  1  0
  3  4  1  0
  4  5  2  0
  5  6  1  0
  6  7  2  0
  7  8  1  0
  8  9  2  0
  2 10  1  0
 10 11  2  0
 11 12  1  0
 12 13  2  0
 13 14  1  0
 14 15  1  0
 14 16  2  0
  9  4  1  0
 16 10  1  0
M  CHG  2   3   1   9   1
M  END
>  <Energy>  (857) 
112.39349555046782

>  <Energy_Delta>  (857) 
1.5913447665652853

>  <std_smi>  (857) 
CC(Nc1cnccn1)c1cccc(Cl)c1

>  <enum_smi>  (857) 
CC([NH2+]c1cncc[nH+]1)c1cccc(Cl)c1

>  <enum_code>  (857) 
M

>  <parent_uuid>  (857) 
6620cc01-fc2b-4cc4-81f0-045e40704b17

>  <o3da_score>  (857) 
66.946374026861648

>  <o3da_score_rel>  (857) 
0.26652324203317745

>  <o3da_align>  (857) 
0.45099818661392982

>  <RMSD>  (857) 
6.9128232559428332e-05

>  <CONVERGED>  (857) 
0

>  <ENERGY>  (857) 
112.39349551234935

$$$$
e13b9a01-5b96-4ee8-8471-2b7c9817c285
     RDKit          3D

 16 17  0  0  0  0  0  0  0  0999 V2000
   -3.6513   28.9717    6.4921 C   0  0  0  0  0  0  0  0  0  0  0  0
   -4.5024   28.3008    5.4118 C   0  0  0  0  0  0  0  0  0  0  0  0
   -4.6428   29.2309    4.2225 N   0  0  0  0  0  4  0  0  0  0  0  0
   -3.4269   29.4056    3.4157 C   0  0  0  0  0  0  0  0  0  0  0  0
   -2.6927   30.5935    3.5070 C   0  0  0  0  0  0  0  0  0  0  0  0
   -1.5740   30.8190    2.7881 N   0  0  0  0  0  0  0  0  0  0  0  0
   -1.1586   29.8518    1.9450 C   0  0  0  0  0  0  0  0  0  0  0  0
   -1.8495   28.6620    1.8094 C   0  0  0  0  0  0  0  0  0  0  0  0
   -2.9697   28.4733    2.5445 N   0  0  0  0  0  4  0  0  0  0  0  0
   -4.0761   26.9144    4.9719 C   0  0  0  0  0  0  0  0  0  0  0  0
   -5.0235   26.0649    4.3692 C   0  0  0  0  0  0  0  0  0  0  0  0
   -4.6504   24.8111    3.8781 C   0  0  0  0  0  0  0  0  0  0  0  0
   -3.3274   24.3852    3.9743 C   0  0  0  0  0  0  0  0  0  0  0  0
   -2.3840   25.2066    4.5793 C   0  0  0  0  0  0  0  0  0  0  0  0
   -0.7425   24.7148    4.6660 Cl  0  0  0  0  0  0  0  0  0  0  0  0
   -2.7501   26.4591    5.0815 C   0  0  0  0  0  0  0  0  0  0  0  0
  1  2  1  0
  2  3  1  0
  3  4  1  0
  4  5  2  0
  5  6  1  0
  6  7  2  0
  7  8  1  0
  8  9  2  0
  2 10  1  0
 10 11  2  0
 11 12  1  0
 12 13  2  0
 13 14  1  0
 14 15  1  0
 14 16  2  0
  9  4  1  0
 16 10  1  0
M  CHG  2   3   1   9   1
M  END
>  <Energy>  (858) 
112.39349582971857

>  <Energy_Delta>  (858) 
1.5913450458160412

>  <std_smi>  (858) 
CC(Nc1cnccn1)c1cccc(Cl)c1

>  <enum_smi>  (858) 
CC([NH2+]c1cncc[nH+]1)c1cccc(Cl)c1

>  <enum_code>  (858) 
M

>  <parent_uuid>  (858) 
6620cc01-fc2b-4cc4-81f0-045e40704b17

>  <o3da_score>  (858) 
75.663420336940902

>  <o3da_score_rel>  (858) 
0.30122706994450643

>  <o3da_align>  (858) 
0.62761829289859394

>  <RMSD>  (858) 
8.6229774059454518e-05

>  <CONVERGED>  (858) 
0

>  <ENERGY>  (858) 
112.39349551462065

$$$$
e13b9a01-5b96-4ee8-8471-2b7c9817c285
     RDKit          3D

 16 17  0  0  0  0  0  0  0  0999 V2000
   -6.2607   28.2860    5.4797 C   0  0  0  0  0  0  0  0  0  0  0  0
   -4.7943   28.1661    5.0640 C   0  0  0  0  0  0  0  0  0  0  0  0
   -4.5763   29.0782    3.8753 N   0  0  0  0  0  4  0  0  0  0  0  0
   -3.1816   29.1338    3.4168 C   0  0  0  0  0  0  0  0  0  0  0  0
   -2.7877   28.4152    2.2806 C   0  0  0  0  0  0  0  0  0  0  0  0
   -1.5274   28.4371    1.8004 N   0  0  0  0  0  0  0  0  0  0  0  0
   -0.6158   29.1830    2.4546 C   0  0  0  0  0  0  0  0  0  0  0  0
   -0.9502   29.9144    3.5792 C   0  0  0  0  0  0  0  0  0  0  0  0
   -2.2270   29.8743    4.0292 N   0  0  0  0  0  4  0  0  0  0  0  0
   -4.3677   26.7450    4.7728 C   0  0  0  0  0  0  0  0  0  0  0  0
   -5.0806   25.9167    3.8885 C   0  0  0  0  0  0  0  0  0  0  0  0
   -4.6214   24.6295    3.5936 C   0  0  0  0  0  0  0  0  0  0  0  0
   -3.4462   24.1507    4.1705 C   0  0  0  0  0  0  0  0  0  0  0  0
   -2.7388   24.9553    5.0543 C   0  0  0  0  0  0  0  0  0  0  0  0
   -1.2811   24.3907    5.7639 Cl  0  0  0  0  0  0  0  0  0  0  0  0
   -3.1935   26.2405    5.3610 C   0  0  0  0  0  0  0  0  0  0  0  0
  1  2  1  0
  2  3  1  0
  3  4  1  0
  4  5  2  0
  5  6  1  0
  6  7  2  0
  7  8  1  0
  8  9  2  0
  2 10  1  0
 10 11  2  0
 11 12  1  0
 12 13  2  0
 13 14  1  0
 14 15  1  0
 14 16  2  0
  9  4  1  0
 16 10  1  0
M  CHG  2   3   1   9   1
M  END
>  <Energy>  (859) 
115.27105924922797

>  <Energy_Delta>  (859) 
4.4689084653254412

>  <std_smi>  (859) 
CC(Nc1cnccn1)c1cccc(Cl)c1

>  <enum_smi>  (859) 
CC([NH2+]c1cncc[nH+]1)c1cccc(Cl)c1

>  <enum_code>  (859) 
M

>  <parent_uuid>  (859) 
6620cc01-fc2b-4cc4-81f0-045e40704b17

>  <o3da_score>  (859) 
76.266236266535529

>  <o3da_score_rel>  (859) 
0.30362696774689285

>  <o3da_align>  (859) 
0.562802538206293

>  <RMSD>  (859) 
8.0306371126045233e-05

>  <CONVERGED>  (859) 
0

>  <ENERGY>  (859) 
115.27105915936214

$$$$
e13b9a01-5b96-4ee8-8471-2b7c9817c285
     RDKit          3D

 16 17  0  0  0  0  0  0  0  0999 V2000
   -4.2340   30.4114    5.1903 C   0  0  0  0  0  0  0  0  0  0  0  0
   -3.6805   29.0661    4.7196 C   0  0  0  0  0  0  0  0  0  0  0  0
   -4.6391   27.9876    5.1781 N   0  0  0  0  0  4  0  0  0  0  0  0
   -4.1898   26.6231    4.8706 C   0  0  0  0  0  0  0  0  0  0  0  0
   -4.7435   25.9301    3.7863 C   0  0  0  0  0  0  0  0  0  0  0  0
   -4.3850   24.6710    3.4616 N   0  0  0  0  0  0  0  0  0  0  0  0
   -3.4486   24.0664    4.2186 C   0  0  0  0  0  0  0  0  0  0  0  0
   -2.8711   24.7022    5.3019 C   0  0  0  0  0  0  0  0  0  0  0  0
   -3.2603   25.9641    5.6030 N   0  0  0  0  0  4  0  0  0  0  0  0
   -3.4335   29.0075    3.2291 C   0  0  0  0  0  0  0  0  0  0  0  0
   -4.4220   29.3583    2.2931 C   0  0  0  0  0  0  0  0  0  0  0  0
   -4.1801   29.2311    0.9219 C   0  0  0  0  0  0  0  0  0  0  0  0
   -2.9546   28.7501    0.4638 C   0  0  0  0  0  0  0  0  0  0  0  0
   -1.9660   28.4107    1.3783 C   0  0  0  0  0  0  0  0  0  0  0  0
   -0.4551   27.8021    0.8357 Cl  0  0  0  0  0  0  0  0  0  0  0  0
   -2.1955   28.5412    2.7504 C   0  0  0  0  0  0  0  0  0  0  0  0
  1  2  1  0
  2  3  1  0
  3  4  1  0
  4  5  2  0
  5  6  1  0
  6  7  2  0
  7  8  1  0
  8  9  2  0
  2 10  1  0
 10 11  2  0
 11 12  1  0
 12 13  2  0
 13 14  1  0
 14 15  1  0
 14 16  2  0
  9  4  1  0
 16 10  1  0
M  CHG  2   3   1   9   1
M  END
>  <Energy>  (860) 
115.27105935049366

>  <Energy_Delta>  (860) 
4.468908566591125

>  <std_smi>  (860) 
CC(Nc1cnccn1)c1cccc(Cl)c1

>  <enum_smi>  (860) 
CC([NH2+]c1cncc[nH+]1)c1cccc(Cl)c1

>  <enum_code>  (860) 
M

>  <parent_uuid>  (860) 
6620cc01-fc2b-4cc4-81f0-045e40704b17

>  <o3da_score>  (860) 
77.041630645862739

>  <o3da_score_rel>  (860) 
0.30671392543260217

>  <o3da_align>  (860) 
0.52140823279384985

>  <RMSD>  (860) 
8.9364041514218218e-05

>  <CONVERGED>  (860) 
0

>  <ENERGY>  (860) 
115.27105916246535

$$$$
e13b9a01-5b96-4ee8-8471-2b7c9817c285
     RDKit          3D

 16 17  0  0  0  0  0  0  0  0999 V2000
   -4.7390   28.3093    6.8962 C   0  0  0  0  0  0  0  0  0  0  0  0
   -4.5899   28.1012    5.3887 C   0  0  0  0  0  0  0  0  0  0  0  0
   -3.5682   29.0992    4.8849 N   0  0  0  0  0  4  0  0  0  0  0  0
   -3.4288   29.1161    3.4230 C   0  0  0  0  0  0  0  0  0  0  0  0
   -2.3694   28.4362    2.8083 C   0  0  0  0  0  0  0  0  0  0  0  0
   -2.1755   28.4372    1.4732 N   0  0  0  0  0  0  0  0  0  0  0  0
   -3.0455   29.1258    0.7089 C   0  0  0  0  0  0  0  0  0  0  0  0
   -4.1063   29.8174    1.2631 C   0  0  0  0  0  0  0  0  0  0  0  0
   -4.2690   29.7970    2.6074 N   0  0  0  0  0  4  0  0  0  0  0  0
   -4.2271   26.6794    5.0253 C   0  0  0  0  0  0  0  0  0  0  0  0
   -5.0235   25.9624    4.1153 C   0  0  0  0  0  0  0  0  0  0  0  0
   -4.6757   24.6638    3.7331 C   0  0  0  0  0  0  0  0  0  0  0  0
   -3.5308   24.0610    4.2508 C   0  0  0  0  0  0  0  0  0  0  0  0
   -2.7428   24.7534    5.1616 C   0  0  0  0  0  0  0  0  0  0  0  0
   -1.3245   24.0292    5.8028 Cl  0  0  0  0  0  0  0  0  0  0  0  0
   -3.0845   26.0510    5.5534 C   0  0  0  0  0  0  0  0  0  0  0  0
  1  2  1  0
  2  3  1  0
  3  4  1  0
  4  5  2  0
  5  6  1  0
  6  7  2  0
  7  8  1  0
  8  9  2  0
  2 10  1  0
 10 11  2  0
 11 12  1  0
 12 13  2  0
 13 14  1  0
 14 15  1  0
 14 16  2  0
  9  4  1  0
 16 10  1  0
M  CHG  2   3   1   9   1
M  END
>  <Energy>  (861) 
115.83337909864362

>  <Energy_Delta>  (861) 
5.0312283147410852

>  <std_smi>  (861) 
CC(Nc1cnccn1)c1cccc(Cl)c1

>  <enum_smi>  (861) 
CC([NH2+]c1cncc[nH+]1)c1cccc(Cl)c1

>  <enum_code>  (861) 
M

>  <parent_uuid>  (861) 
6620cc01-fc2b-4cc4-81f0-045e40704b17

>  <o3da_score>  (861) 
74.995944797453816

>  <o3da_score_rel>  (861) 
0.2985697528403633

>  <o3da_align>  (861) 
0.42515431570790491

>  <RMSD>  (861) 
7.4236669816156613e-05

>  <CONVERGED>  (861) 
0

>  <ENERGY>  (861) 
115.83337894643967

$$$$
e13b9a01-5b96-4ee8-8471-2b7c9817c285
     RDKit          3D

 16 17  0  0  0  0  0  0  0  0999 V2000
   -4.2605   28.8058    6.5251 C   0  0  0  0  0  0  0  0  0  0  0  0
   -4.8200   28.1678    5.2516 C   0  0  0  0  0  0  0  0  0  0  0  0
   -4.5890   29.1050    4.0809 N   0  0  0  0  0  4  0  0  0  0  0  0
   -3.2133   29.1484    3.5660 C   0  0  0  0  0  0  0  0  0  0  0  0
   -2.8509   28.3603    2.4648 C   0  0  0  0  0  0  0  0  0  0  0  0
   -1.6137   28.3750    1.9275 N   0  0  0  0  0  0  0  0  0  0  0  0
   -0.6937   29.1864    2.4844 C   0  0  0  0  0  0  0  0  0  0  0  0
   -0.9979   29.9911    3.5665 C   0  0  0  0  0  0  0  0  0  0  0  0
   -2.2525   29.9560    4.0752 N   0  0  0  0  0  4  0  0  0  0  0  0
   -4.3689   26.7549    4.9532 C   0  0  0  0  0  0  0  0  0  0  0  0
   -5.1944   25.9196    4.1766 C   0  0  0  0  0  0  0  0  0  0  0  0
   -4.7827   24.6306    3.8262 C   0  0  0  0  0  0  0  0  0  0  0  0
   -3.5411   24.1533    4.2397 C   0  0  0  0  0  0  0  0  0  0  0  0
   -2.7205   24.9617    5.0157 C   0  0  0  0  0  0  0  0  0  0  0  0
   -1.1794   24.3980    5.5222 Cl  0  0  0  0  0  0  0  0  0  0  0  0
   -3.1272   26.2502    5.3771 C   0  0  0  0  0  0  0  0  0  0  0  0
  1  2  1  0
  2  3  1  0
  3  4  1  0
  4  5  2  0
  5  6  1  0
  6  7  2  0
  7  8  1  0
  8  9  2  0
  2 10  1  0
 10 11  2  0
 11 12  1  0
 12 13  2  0
 13 14  1  0
 14 15  1  0
 14 16  2  0
  9  4  1  0
 16 10  1  0
M  CHG  2   3   1   9   1
M  END
>  <Energy>  (862) 
116.67735275001743

>  <Energy_Delta>  (862) 
5.8752019661149006

>  <std_smi>  (862) 
CC(Nc1cnccn1)c1cccc(Cl)c1

>  <enum_smi>  (862) 
CC([NH2+]c1cncc[nH+]1)c1cccc(Cl)c1

>  <enum_code>  (862) 
M

>  <parent_uuid>  (862) 
6620cc01-fc2b-4cc4-81f0-045e40704b17

>  <o3da_score>  (862) 
71.811021432192916

>  <o3da_score_rel>  (862) 
0.28589011016702065

>  <o3da_align>  (862) 
0.5177205474858162

>  <RMSD>  (862) 
0.00011726752993750826

>  <CONVERGED>  (862) 
0

>  <ENERGY>  (862) 
116.67735239509285

$$$$
e13b9a01-5b96-4ee8-8471-2b7c9817c285
     RDKit          3D

 16 17  0  0  0  0  0  0  0  0999 V2000
   -2.6412   27.3613    3.2981 C   0  0  0  0  0  0  0  0  0  0  0  0
   -3.7733   26.9279    4.2310 C   0  0  0  0  0  0  0  0  0  0  0  0
   -3.2188   26.0548    5.3350 N   0  0  0  0  0  4  0  0  0  0  0  0
   -2.8154   24.7177    4.9036 C   0  0  0  0  0  0  0  0  0  0  0  0
   -3.7707   23.6991    4.8051 C   0  0  0  0  0  0  0  0  0  0  0  0
   -3.4637   22.4435    4.4218 N   0  0  0  0  0  0  0  0  0  0  0  0
   -2.1755   22.1679    4.1346 C   0  0  0  0  0  0  0  0  0  0  0  0
   -1.1900   23.1339    4.2231 C   0  0  0  0  0  0  0  0  0  0  0  0
   -1.5364   24.3858    4.6063 N   0  0  0  0  0  4  0  0  0  0  0  0
   -4.5129   28.0919    4.8539 C   0  0  0  0  0  0  0  0  0  0  0  0
   -5.9188   28.1061    4.8518 C   0  0  0  0  0  0  0  0  0  0  0  0
   -6.6236   29.1492    5.4596 C   0  0  0  0  0  0  0  0  0  0  0  0
   -5.9393   30.1900    6.0842 C   0  0  0  0  0  0  0  0  0  0  0  0
   -4.5502   30.1879    6.0942 C   0  0  0  0  0  0  0  0  0  0  0  0
   -3.6897   31.4562    6.8693 Cl  0  0  0  0  0  0  0  0  0  0  0  0
   -3.8364   29.1501    5.4868 C   0  0  0  0  0  0  0  0  0  0  0  0
  1  2  1  0
  2  3  1  0
  3  4  1  0
  4  5  2  0
  5  6  1  0
  6  7  2  0
  7  8  1  0
  8  9  2  0
  2 10  1  0
 10 11  2  0
 11 12  1  0
 12 13  2  0
 13 14  1  0
 14 15  1  0
 14 16  2  0
  9  4  1  0
 16 10  1  0
M  CHG  2   3   1   9   1
M  END
>  <Energy>  (863) 
117.1506666648617

>  <Energy_Delta>  (863) 
6.3485158809591695

>  <std_smi>  (863) 
CC(Nc1cnccn1)c1cccc(Cl)c1

>  <enum_smi>  (863) 
CC([NH2+]c1cncc[nH+]1)c1cccc(Cl)c1

>  <enum_code>  (863) 
M

>  <parent_uuid>  (863) 
6620cc01-fc2b-4cc4-81f0-045e40704b17

>  <o3da_score>  (863) 
67.887383736633566

>  <o3da_score_rel>  (863) 
0.27026953841261214

>  <o3da_align>  (863) 
0.56251810579422279

>  <RMSD>  (863) 
7.3307413125145741e-05

>  <CONVERGED>  (863) 
0

>  <ENERGY>  (863) 
117.15066663778929

$$$$
e13b9a01-5b96-4ee8-8471-2b7c9817c285
     RDKit          3D

 16 17  0  0  0  0  0  0  0  0999 V2000
   -3.1802   29.9180    5.7276 C   0  0  0  0  0  0  0  0  0  0  0  0
   -3.3865   28.9093    4.5962 C   0  0  0  0  0  0  0  0  0  0  0  0
   -3.6537   29.6475    3.3030 N   0  0  0  0  0  4  0  0  0  0  0  0
   -2.4786   30.2966    2.7246 C   0  0  0  0  0  0  0  0  0  0  0  0
   -1.5998   29.5594    1.9219 C   0  0  0  0  0  0  0  0  0  0  0  0
   -0.5035   30.0988    1.3519 N   0  0  0  0  0  0  0  0  0  0  0  0
   -0.2605   31.4079    1.5634 C   0  0  0  0  0  0  0  0  0  0  0  0
   -1.0996   32.1846    2.3409 C   0  0  0  0  0  0  0  0  0  0  0  0
   -2.1889   31.6076    2.9018 N   0  0  0  0  0  4  0  0  0  0  0  0
   -4.5194   27.9359    4.8403 C   0  0  0  0  0  0  0  0  0  0  0  0
   -5.7571   28.3347    5.3738 C   0  0  0  0  0  0  0  0  0  0  0  0
   -6.7942   27.4104    5.5360 C   0  0  0  0  0  0  0  0  0  0  0  0
   -6.6178   26.0796    5.1616 C   0  0  0  0  0  0  0  0  0  0  0  0
   -5.4010   25.6727    4.6296 C   0  0  0  0  0  0  0  0  0  0  0  0
   -5.1704   24.0397    4.1518 Cl  0  0  0  0  0  0  0  0  0  0  0  0
   -4.3580   26.5885    4.4663 C   0  0  0  0  0  0  0  0  0  0  0  0
  1  2  1  0
  2  3  1  0
  3  4  1  0
  4  5  2  0
  5  6  1  0
  6  7  2  0
  7  8  1  0
  8  9  2  0
  2 10  1  0
 10 11  2  0
 11 12  1  0
 12 13  2  0
 13 14  1  0
 14 15  1  0
 14 16  2  0
  9  4  1  0
 16 10  1  0
M  CHG  2   3   1   9   1
M  END
>  <Energy>  (864) 
117.48689467856485

>  <Energy_Delta>  (864) 
6.6847438946623186

>  <std_smi>  (864) 
CC(Nc1cnccn1)c1cccc(Cl)c1

>  <enum_smi>  (864) 
CC([NH2+]c1cncc[nH+]1)c1cccc(Cl)c1

>  <enum_code>  (864) 
M

>  <parent_uuid>  (864) 
6620cc01-fc2b-4cc4-81f0-045e40704b17

>  <o3da_score>  (864) 
68.734742940721148

>  <o3da_score_rel>  (864) 
0.27364299852188495

>  <o3da_align>  (864) 
0.58238941152709089

>  <RMSD>  (864) 
0.00010614367293932253

>  <CONVERGED>  (864) 
0

>  <ENERGY>  (864) 
117.48689468071298

$$$$
e13b9a01-5b96-4ee8-8471-2b7c9817c285
     RDKit          3D

 16 17  0  0  0  0  0  0  0  0999 V2000
   -2.9668   29.0529    3.4630 C   0  0  0  0  0  0  0  0  0  0  0  0
   -4.4598   28.7658    3.6317 C   0  0  0  0  0  0  0  0  0  0  0  0
   -4.6804   27.9597    4.8928 N   0  0  0  0  0  4  0  0  0  0  0  0
   -4.2600   26.5629    4.7976 C   0  0  0  0  0  0  0  0  0  0  0  0
   -5.1245   25.6113    4.2433 C   0  0  0  0  0  0  0  0  0  0  0  0
   -4.8021   24.3068    4.1338 N   0  0  0  0  0  0  0  0  0  0  0  0
   -3.5965   23.9133    4.5912 C   0  0  0  0  0  0  0  0  0  0  0  0
   -2.7072   24.8095    5.1549 C   0  0  0  0  0  0  0  0  0  0  0  0
   -3.0631   26.1132    5.2440 N   0  0  0  0  0  4  0  0  0  0  0  0
   -5.3209   30.0088    3.6957 C   0  0  0  0  0  0  0  0  0  0  0  0
   -4.9530   31.1462    4.4349 C   0  0  0  0  0  0  0  0  0  0  0  0
   -5.8030   32.2546    4.5073 C   0  0  0  0  0  0  0  0  0  0  0  0
   -7.0336   32.2436    3.8534 C   0  0  0  0  0  0  0  0  0  0  0  0
   -7.4114   31.1246    3.1224 C   0  0  0  0  0  0  0  0  0  0  0  0
   -8.9292   31.0891    2.3205 Cl  0  0  0  0  0  0  0  0  0  0  0  0
   -6.5675   30.0134    3.0420 C   0  0  0  0  0  0  0  0  0  0  0  0
  1  2  1  0
  2  3  1  0
  3  4  1  0
  4  5  2  0
  5  6  1  0
  6  7  2  0
  7  8  1  0
  8  9  2  0
  2 10  1  0
 10 11  2  0
 11 12  1  0
 12 13  2  0
 13 14  1  0
 14 15  1  0
 14 16  2  0
  9  4  1  0
 16 10  1  0
M  CHG  2   3   1   9   1
M  END
>  <Energy>  (865) 
117.48689526535573

>  <Energy_Delta>  (865) 
6.684744481453194

>  <std_smi>  (865) 
CC(Nc1cnccn1)c1cccc(Cl)c1

>  <enum_smi>  (865) 
CC([NH2+]c1cncc[nH+]1)c1cccc(Cl)c1

>  <enum_code>  (865) 
M

>  <parent_uuid>  (865) 
6620cc01-fc2b-4cc4-81f0-045e40704b17

>  <o3da_score>  (865) 
61.432191954214041

>  <o3da_score_rel>  (865) 
0.24457048201403769

>  <o3da_align>  (865) 
0.19714918377494911

>  <RMSD>  (865) 
0.00026438631734539549

>  <CONVERGED>  (865) 
0

>  <ENERGY>  (865) 
117.48689575655463

$$$$
e13b9a01-5b96-4ee8-8471-2b7c9817c285
     RDKit          3D

 16 17  0  0  0  0  0  0  0  0999 V2000
   -2.8831   28.6659    6.3246 C   0  0  0  0  0  0  0  0  0  0  0  0
   -3.0929   28.4249    4.8294 C   0  0  0  0  0  0  0  0  0  0  0  0
   -4.5357   28.0711    4.5545 N   0  0  0  0  0  4  0  0  0  0  0  0
   -4.9047   26.7009    4.9057 C   0  0  0  0  0  0  0  0  0  0  0  0
   -5.5565   26.4387    6.1160 C   0  0  0  0  0  0  0  0  0  0  0  0
   -5.9358   25.1995    6.4886 N   0  0  0  0  0  0  0  0  0  0  0  0
   -5.6803   24.1797    5.6447 C   0  0  0  0  0  0  0  0  0  0  0  0
   -5.0487   24.3835    4.4317 C   0  0  0  0  0  0  0  0  0  0  0  0
   -4.6781   25.6412    4.0927 N   0  0  0  0  0  4  0  0  0  0  0  0
   -2.7121   29.6106    3.9694 C   0  0  0  0  0  0  0  0  0  0  0  0
   -3.1611   30.9129    4.2499 C   0  0  0  0  0  0  0  0  0  0  0  0
   -2.8304   31.9776    3.4058 C   0  0  0  0  0  0  0  0  0  0  0  0
   -2.0555   31.7606    2.2678 C   0  0  0  0  0  0  0  0  0  0  0  0
   -1.6057   30.4785    1.9794 C   0  0  0  0  0  0  0  0  0  0  0  0
   -0.6607   30.1888    0.5752 Cl  0  0  0  0  0  0  0  0  0  0  0  0
   -1.9281   29.4086    2.8191 C   0  0  0  0  0  0  0  0  0  0  0  0
  1  2  1  0
  2  3  1  0
  3  4  1  0
  4  5  2  0
  5  6  1  0
  6  7  2  0
  7  8  1  0
  8  9  2  0
  2 10  1  0
 10 11  2  0
 11 12  1  0
 12 13  2  0
 13 14  1  0
 14 15  1  0
 14 16  2  0
  9  4  1  0
 16 10  1  0
M  CHG  2   3   1   9   1
M  END
>  <Energy>  (866) 
117.67198061197014

>  <Energy_Delta>  (866) 
6.8698298280676084

>  <std_smi>  (866) 
CC(Nc1cnccn1)c1cccc(Cl)c1

>  <enum_smi>  (866) 
CC([NH2+]c1cncc[nH+]1)c1cccc(Cl)c1

>  <enum_code>  (866) 
M

>  <parent_uuid>  (866) 
6620cc01-fc2b-4cc4-81f0-045e40704b17

>  <o3da_score>  (866) 
71.491880576676465

>  <o3da_score_rel>  (866) 
0.28461956405135863

>  <o3da_align>  (866) 
0.69462447263684768

>  <RMSD>  (866) 
7.426805710222696e-05

>  <CONVERGED>  (866) 
0

>  <ENERGY>  (866) 
117.67198055756349

$$$$
e13b9a01-5b96-4ee8-8471-2b7c9817c285
     RDKit          3D

 16 17  0  0  0  0  0  0  0  0999 V2000
   -3.0831   29.8409    5.7004 C   0  0  0  0  0  0  0  0  0  0  0  0
   -3.3912   28.8770    4.5542 C   0  0  0  0  0  0  0  0  0  0  0  0
   -3.7322   29.6479    3.3005 N   0  0  0  0  0  4  0  0  0  0  0  0
   -2.5814   30.2252    2.6081 C   0  0  0  0  0  0  0  0  0  0  0  0
   -2.2577   31.5744    2.7910 C   0  0  0  0  0  0  0  0  0  0  0  0
   -1.2190   32.1678    2.1689 N   0  0  0  0  0  0  0  0  0  0  0  0
   -0.4750   31.4210    1.3284 C   0  0  0  0  0  0  0  0  0  0  0  0
   -0.7566   30.0863    1.1027 C   0  0  0  0  0  0  0  0  0  0  0  0
   -1.8052   29.5226    1.7484 N   0  0  0  0  0  4  0  0  0  0  0  0
   -4.5246   27.9217    4.8593 C   0  0  0  0  0  0  0  0  0  0  0  0
   -5.7551   28.3621    5.3772 C   0  0  0  0  0  0  0  0  0  0  0  0
   -6.7983   27.4581    5.6010 C   0  0  0  0  0  0  0  0  0  0  0  0
   -6.6347   26.1058    5.3059 C   0  0  0  0  0  0  0  0  0  0  0  0
   -5.4238   25.6579    4.7937 C   0  0  0  0  0  0  0  0  0  0  0  0
   -5.2072   23.9978    4.4118 Cl  0  0  0  0  0  0  0  0  0  0  0  0
   -4.3741   26.5533    4.5700 C   0  0  0  0  0  0  0  0  0  0  0  0
  1  2  1  0
  2  3  1  0
  3  4  1  0
  4  5  2  0
  5  6  1  0
  6  7  2  0
  7  8  1  0
  8  9  2  0
  2 10  1  0
 10 11  2  0
 11 12  1  0
 12 13  2  0
 13 14  1  0
 14 15  1  0
 14 16  2  0
  9  4  1  0
 16 10  1  0
M  CHG  2   3   1   9   1
M  END
>  <Energy>  (867) 
117.67198097378595

>  <Energy_Delta>  (867) 
6.869830189883416

>  <std_smi>  (867) 
CC(Nc1cnccn1)c1cccc(Cl)c1

>  <enum_smi>  (867) 
CC([NH2+]c1cncc[nH+]1)c1cccc(Cl)c1

>  <enum_code>  (867) 
M

>  <parent_uuid>  (867) 
6620cc01-fc2b-4cc4-81f0-045e40704b17

>  <o3da_score>  (867) 
68.398828418605234

>  <o3da_score_rel>  (867) 
0.27230567400234584

>  <o3da_align>  (867) 
0.64044243604156903

>  <RMSD>  (867) 
0.00012102179681229242

>  <CONVERGED>  (867) 
0

>  <ENERGY>  (867) 
117.67198055784377

$$$$
e13b9a01-5b96-4ee8-8471-2b7c9817c285
     RDKit          3D

 16 17  0  0  0  0  0  0  0  0999 V2000
   -3.5816   29.0457    5.2103 C   0  0  0  0  0  0  0  0  0  0  0  0
   -3.8026   28.1697    3.9772 C   0  0  0  0  0  0  0  0  0  0  0  0
   -2.7239   28.4271    2.9504 N   0  0  0  0  0  4  0  0  0  0  0  0
   -2.8782   29.6739    2.2025 C   0  0  0  0  0  0  0  0  0  0  0  0
   -2.1485   30.8090    2.5738 C   0  0  0  0  0  0  0  0  0  0  0  0
   -2.2350   31.9817    1.9139 N   0  0  0  0  0  0  0  0  0  0  0  0
   -3.0539   32.0469    0.8451 C   0  0  0  0  0  0  0  0  0  0  0  0
   -3.7895   30.9530    0.4281 C   0  0  0  0  0  0  0  0  0  0  0  0
   -3.6812   29.7927    1.1181 N   0  0  0  0  0  4  0  0  0  0  0  0
   -3.8277   26.6934    4.3092 C   0  0  0  0  0  0  0  0  0  0  0  0
   -4.9355   25.9089    3.9449 C   0  0  0  0  0  0  0  0  0  0  0  0
   -4.9576   24.5371    4.2140 C   0  0  0  0  0  0  0  0  0  0  0  0
   -3.8761   23.9267    4.8462 C   0  0  0  0  0  0  0  0  0  0  0  0
   -2.7772   24.6917    5.2167 C   0  0  0  0  0  0  0  0  0  0  0  0
   -1.4330   23.9544    5.9901 Cl  0  0  0  0  0  0  0  0  0  0  0  0
   -2.7471   26.0647    4.9547 C   0  0  0  0  0  0  0  0  0  0  0  0
  1  2  1  0
  2  3  1  0
  3  4  1  0
  4  5  2  0
  5  6  1  0
  6  7  2  0
  7  8  1  0
  8  9  2  0
  2 10  1  0
 10 11  2  0
 11 12  1  0
 12 13  2  0
 13 14  1  0
 14 15  1  0
 14 16  2  0
  9  4  1  0
 16 10  1  0
M  CHG  2   3   1   9   1
M  END
>  <Energy>  (868) 
117.93569399110483

>  <Energy_Delta>  (868) 
7.133543207202294

>  <std_smi>  (868) 
CC(Nc1cnccn1)c1cccc(Cl)c1

>  <enum_smi>  (868) 
CC([NH2+]c1cncc[nH+]1)c1cccc(Cl)c1

>  <enum_code>  (868) 
M

>  <parent_uuid>  (868) 
6620cc01-fc2b-4cc4-81f0-045e40704b17

>  <o3da_score>  (868) 
62.979226108100789

>  <o3da_score_rel>  (868) 
0.2507294497583476

>  <o3da_align>  (868) 
0.44161629073382702

>  <RMSD>  (868) 
6.1231349986923974e-05

>  <CONVERGED>  (868) 
0

>  <ENERGY>  (868) 
117.93569388256429

$$$$
c44c42dc-c0cd-4199-826b-e185ee42980b
     RDKit          3D

 16 17  0  0  0  0  0  0  0  0999 V2000
   -4.5334   30.3101    4.9289 C   0  0  0  0  0  0  0  0  0  0  0  0
   -3.7849   29.0061    4.6460 C   0  0  0  0  0  0  0  0  0  0  0  0
   -4.6286   27.8735    5.0386 N   0  0  0  0  0  0  0  0  0  0  0  0
   -4.2286   26.5703    4.8294 C   0  0  0  0  0  0  0  0  0  0  0  0
   -2.9416   26.0953    5.0643 C   0  0  0  0  0  0  0  0  0  0  0  0
   -2.6681   24.7967    4.8375 N   0  0  0  0  0  4  0  0  0  0  0  0
   -3.6114   23.9452    4.3998 C   0  0  0  0  0  0  0  0  0  0  0  0
   -4.8843   24.4388    4.1905 C   0  0  0  0  0  0  0  0  0  0  0  0
   -5.1970   25.7343    4.4060 N   0  0  0  0  0  0  0  0  0  0  0  0
   -3.3621   28.9181    3.1889 C   0  0  0  0  0  0  0  0  0  0  0  0
   -4.3014   28.7795    2.1525 C   0  0  0  0  0  0  0  0  0  0  0  0
   -3.8886   28.6855    0.8211 C   0  0  0  0  0  0  0  0  0  0  0  0
   -2.5319   28.7270    0.5048 C   0  0  0  0  0  0  0  0  0  0  0  0
   -1.5932   28.8710    1.5218 C   0  0  0  0  0  0  0  0  0  0  0  0
    0.0839   28.9047    1.1437 Cl  0  0  0  0  0  0  0  0  0  0  0  0
   -1.9987   28.9729    2.8538 C   0  0  0  0  0  0  0  0  0  0  0  0
  1  2  1  0
  2  3  1  0
  3  4  1  0
  4  5  2  0
  5  6  1  0
  6  7  2  0
  7  8  1  0
  8  9  2  0
  2 10  1  0
 10 11  2  0
 11 12  1  0
 12 13  2  0
 13 14  1  0
 14 15  1  0
 14 16  2  0
  9  4  1  0
 16 10  1  0
M  CHG  1   6   1
M  END
>  <Energy>  (869) 
43.335710929667698

>  <Energy_Delta>  (869) 
0

>  <std_smi>  (869) 
CC(Nc1cnccn1)c1cccc(Cl)c1

>  <enum_smi>  (869) 
CC(Nc1c[nH+]ccn1)c1cccc(Cl)c1

>  <enum_code>  (869) 
M

>  <parent_uuid>  (869) 
6620cc01-fc2b-4cc4-81f0-045e40704b17

>  <o3da_score>  (869) 
81.910916848436372

>  <o3da_score_rel>  (869) 
0.3260992612922653

>  <o3da_align>  (869) 
0.3716127403817287

>  <RMSD>  (869) 
6.6270072741668443e-05

>  <CONVERGED>  (869) 
0

>  <ENERGY>  (869) 
43.33571092252604

$$$$
c44c42dc-c0cd-4199-826b-e185ee42980b
     RDKit          3D

 16 17  0  0  0  0  0  0  0  0999 V2000
   -2.4462   27.7318    5.8390 C   0  0  0  0  0  0  0  0  0  0  0  0
   -3.4168   28.6902    5.1461 C   0  0  0  0  0  0  0  0  0  0  0  0
   -4.6885   27.9997    4.9124 N   0  0  0  0  0  0  0  0  0  0  0  0
   -5.7260   28.6087    4.2381 C   0  0  0  0  0  0  0  0  0  0  0  0
   -6.1202   29.9299    4.4291 C   0  0  0  0  0  0  0  0  0  0  0  0
   -7.1591   30.4150    3.7234 N   0  0  0  0  0  4  0  0  0  0  0  0
   -7.8318   29.6506    2.8463 C   0  0  0  0  0  0  0  0  0  0  0  0
   -7.4305   28.3385    2.6879 C   0  0  0  0  0  0  0  0  0  0  0  0
   -6.3936   27.8161    3.3768 N   0  0  0  0  0  0  0  0  0  0  0  0
   -2.8254   29.2375    3.8575 C   0  0  0  0  0  0  0  0  0  0  0  0
   -2.6008   28.4168    2.7387 C   0  0  0  0  0  0  0  0  0  0  0  0
   -2.0699   28.9450    1.5594 C   0  0  0  0  0  0  0  0  0  0  0  0
   -1.7565   30.3007    1.4790 C   0  0  0  0  0  0  0  0  0  0  0  0
   -1.9678   31.1215    2.5825 C   0  0  0  0  0  0  0  0  0  0  0  0
   -1.6018   32.7989    2.4873 Cl  0  0  0  0  0  0  0  0  0  0  0  0
   -2.4913   30.5992    3.7666 C   0  0  0  0  0  0  0  0  0  0  0  0
  1  2  1  0
  2  3  1  0
  3  4  1  0
  4  5  2  0
  5  6  1  0
  6  7  2  0
  7  8  1  0
  8  9  2  0
  2 10  1  0
 10 11  2  0
 11 12  1  0
 12 13  2  0
 13 14  1  0
 14 15  1  0
 14 16  2  0
  9  4  1  0
 16 10  1  0
M  CHG  1   6   1
M  END
>  <Energy>  (870) 
43.335710953464869

>  <Energy_Delta>  (870) 
2.3797170456418826e-08

>  <std_smi>  (870) 
CC(Nc1cnccn1)c1cccc(Cl)c1

>  <enum_smi>  (870) 
CC(Nc1c[nH+]ccn1)c1cccc(Cl)c1

>  <enum_code>  (870) 
M

>  <parent_uuid>  (870) 
6620cc01-fc2b-4cc4-81f0-045e40704b17

>  <o3da_score>  (870) 
69.694954539803817

>  <o3da_score_rel>  (870) 
0.27746574041262112

>  <o3da_align>  (870) 
0.44237394046516354

>  <RMSD>  (870) 
7.0739238398180755e-05

>  <CONVERGED>  (870) 
0

>  <ENERGY>  (870) 
43.335710922844498

$$$$
c44c42dc-c0cd-4199-826b-e185ee42980b
     RDKit          3D

 16 17  0  0  0  0  0  0  0  0999 V2000
   -4.4625   30.3520    4.8627 C   0  0  0  0  0  0  0  0  0  0  0  0
   -3.6856   29.0365    4.9336 C   0  0  0  0  0  0  0  0  0  0  0  0
   -4.6315   27.9189    4.8851 N   0  0  0  0  0  0  0  0  0  0  0  0
   -4.2199   26.6067    4.8199 C   0  0  0  0  0  0  0  0  0  0  0  0
   -3.1364   26.0828    5.5181 C   0  0  0  0  0  0  0  0  0  0  0  0
   -2.8328   24.7785    5.3784 N   0  0  0  0  0  4  0  0  0  0  0  0
   -3.5566   23.9680    4.5872 C   0  0  0  0  0  0  0  0  0  0  0  0
   -4.6355   24.5099    3.9171 C   0  0  0  0  0  0  0  0  0  0  0  0
   -4.9712   25.8123    4.0324 N   0  0  0  0  0  0  0  0  0  0  0  0
   -2.6429   28.9685    3.8291 C   0  0  0  0  0  0  0  0  0  0  0  0
   -1.2963   29.2422    4.1257 C   0  0  0  0  0  0  0  0  0  0  0  0
   -0.3194   29.1870    3.1286 C   0  0  0  0  0  0  0  0  0  0  0  0
   -0.6733   28.8595    1.8207 C   0  0  0  0  0  0  0  0  0  0  0  0
   -2.0053   28.5995    1.5117 C   0  0  0  0  0  0  0  0  0  0  0  0
   -2.4450   28.1853   -0.0981 Cl  0  0  0  0  0  0  0  0  0  0  0  0
   -2.9872   28.6611    2.5011 C   0  0  0  0  0  0  0  0  0  0  0  0
  1  2  1  0
  2  3  1  0
  3  4  1  0
  4  5  2  0
  5  6  1  0
  6  7  2  0
  7  8  1  0
  8  9  2  0
  2 10  1  0
 10 11  2  0
 11 12  1  0
 12 13  2  0
 13 14  1  0
 14 15  1  0
 14 16  2  0
  9  4  1  0
 16 10  1  0
M  CHG  1   6   1
M  END
>  <Energy>  (871) 
43.532587511755708

>  <Energy_Delta>  (871) 
0.1968765820880094

>  <std_smi>  (871) 
CC(Nc1cnccn1)c1cccc(Cl)c1

>  <enum_smi>  (871) 
CC(Nc1c[nH+]ccn1)c1cccc(Cl)c1

>  <enum_code>  (871) 
M

>  <parent_uuid>  (871) 
6620cc01-fc2b-4cc4-81f0-045e40704b17

>  <o3da_score>  (871) 
81.356757859738366

>  <o3da_score_rel>  (871) 
0.32389307384124133

>  <o3da_align>  (871) 
0.40330786133590363

>  <RMSD>  (871) 
6.3957533630225821e-05

>  <CONVERGED>  (871) 
0

>  <ENERGY>  (871) 
43.532587509706524

$$$$
c44c42dc-c0cd-4199-826b-e185ee42980b
     RDKit          3D

 16 17  0  0  0  0  0  0  0  0999 V2000
   -5.6316   29.9881    4.7348 C   0  0  0  0  0  0  0  0  0  0  0  0
   -5.5190   28.5549    4.2127 C   0  0  0  0  0  0  0  0  0  0  0  0
   -4.7290   27.7620    5.1577 N   0  0  0  0  0  0  0  0  0  0  0  0
   -4.3642   26.4591    4.9027 C   0  0  0  0  0  0  0  0  0  0  0  0
   -5.1836   25.5138    4.2937 C   0  0  0  0  0  0  0  0  0  0  0  0
   -4.7173   24.2653    4.1020 N   0  0  0  0  0  4  0  0  0  0  0  0
   -3.4819   23.9076    4.4926 C   0  0  0  0  0  0  0  0  0  0  0  0
   -2.6945   24.8608    5.1077 C   0  0  0  0  0  0  0  0  0  0  0  0
   -3.1273   26.1220    5.3177 N   0  0  0  0  0  0  0  0  0  0  0  0
   -4.9383   28.5394    2.8076 C   0  0  0  0  0  0  0  0  0  0  0  0
   -5.7933   28.3813    1.7030 C   0  0  0  0  0  0  0  0  0  0  0  0
   -5.2845   28.3644    0.4020 C   0  0  0  0  0  0  0  0  0  0  0  0
   -3.9149   28.5069    0.1853 C   0  0  0  0  0  0  0  0  0  0  0  0
   -3.0595   28.6775    1.2700 C   0  0  0  0  0  0  0  0  0  0  0  0
   -1.3684   28.8436    1.0081 Cl  0  0  0  0  0  0  0  0  0  0  0  0
   -3.5621   28.7038    2.5713 C   0  0  0  0  0  0  0  0  0  0  0  0
  1  2  1  0
  2  3  1  0
  3  4  1  0
  4  5  2  0
  5  6  1  0
  6  7  2  0
  7  8  1  0
  8  9  2  0
  2 10  1  0
 10 11  2  0
 11 12  1  0
 12 13  2  0
 13 14  1  0
 14 15  1  0
 14 16  2  0
  9  4  1  0
 16 10  1  0
M  CHG  1   6   1
M  END
>  <Energy>  (872) 
43.532587516089336

>  <Energy_Delta>  (872) 
0.19687658642163797

>  <std_smi>  (872) 
CC(Nc1cnccn1)c1cccc(Cl)c1

>  <enum_smi>  (872) 
CC(Nc1c[nH+]ccn1)c1cccc(Cl)c1

>  <enum_code>  (872) 
M

>  <parent_uuid>  (872) 
6620cc01-fc2b-4cc4-81f0-045e40704b17

>  <o3da_score>  (872) 
70.264882514935735

>  <o3da_score_rel>  (872) 
0.27973470648980719

>  <o3da_align>  (872) 
0.52288927051165757

>  <RMSD>  (872) 
6.2137206106337961e-05

>  <CONVERGED>  (872) 
0

>  <ENERGY>  (872) 
43.532587510718784

$$$$
c44c42dc-c0cd-4199-826b-e185ee42980b
     RDKit          3D

 16 17  0  0  0  0  0  0  0  0999 V2000
   -5.6846   28.7722    4.5333 C   0  0  0  0  0  0  0  0  0  0  0  0
   -4.4700   28.1204    5.2050 C   0  0  0  0  0  0  0  0  0  0  0  0
   -3.2738   28.9782    5.0715 N   0  0  0  0  0  0  0  0  0  0  0  0
   -2.8131   29.3436    3.8180 C   0  0  0  0  0  0  0  0  0  0  0  0
   -2.3326   28.4454    2.8687 C   0  0  0  0  0  0  0  0  0  0  0  0
   -1.8555   28.9157    1.7011 N   0  0  0  0  0  4  0  0  0  0  0  0
   -1.8286   30.2317    1.4306 C   0  0  0  0  0  0  0  0  0  0  0  0
   -2.3047   31.1013    2.3931 C   0  0  0  0  0  0  0  0  0  0  0  0
   -2.7888   30.6690    3.5776 N   0  0  0  0  0  0  0  0  0  0  0  0
   -4.1671   26.6801    4.8201 C   0  0  0  0  0  0  0  0  0  0  0  0
   -4.8932   25.9730    3.8475 C   0  0  0  0  0  0  0  0  0  0  0  0
   -4.5710   24.6482    3.5352 C   0  0  0  0  0  0  0  0  0  0  0  0
   -3.5202   24.0076    4.1894 C   0  0  0  0  0  0  0  0  0  0  0  0
   -2.7986   24.6902    5.1629 C   0  0  0  0  0  0  0  0  0  0  0  0
   -1.4918   23.9124    5.9634 Cl  0  0  0  0  0  0  0  0  0  0  0  0
   -3.1191   26.0096    5.4827 C   0  0  0  0  0  0  0  0  0  0  0  0
  1  2  1  0
  2  3  1  0
  3  4  1  0
  4  5  2  0
  5  6  1  0
  6  7  2  0
  7  8  1  0
  8  9  2  0
  2 10  1  0
 10 11  2  0
 11 12  1  0
 12 13  2  0
 13 14  1  0
 14 15  1  0
 14 16  2  0
  9  4  1  0
 16 10  1  0
M  CHG  1   6   1
M  END
>  <Energy>  (873) 
44.823365391825511

>  <Energy_Delta>  (873) 
1.4876544621578134

>  <std_smi>  (873) 
CC(Nc1cnccn1)c1cccc(Cl)c1

>  <enum_smi>  (873) 
CC(Nc1c[nH+]ccn1)c1cccc(Cl)c1

>  <enum_code>  (873) 
M

>  <parent_uuid>  (873) 
6620cc01-fc2b-4cc4-81f0-045e40704b17

>  <o3da_score>  (873) 
96.510405795334535

>  <o3da_score_rel>  (873) 
0.3842219480354423

>  <o3da_align>  (873) 
0.49262845477353273

>  <RMSD>  (873) 
7.2469836176079319e-05

>  <CONVERGED>  (873) 
0

>  <ENERGY>  (873) 
44.823365365744742

$$$$
c44c42dc-c0cd-4199-826b-e185ee42980b
     RDKit          3D

 16 17  0  0  0  0  0  0  0  0999 V2000
   -3.3534   29.0550    5.5010 C   0  0  0  0  0  0  0  0  0  0  0  0
   -4.2433   28.1573    4.6329 C   0  0  0  0  0  0  0  0  0  0  0  0
   -4.2014   28.5870    3.2193 N   0  0  0  0  0  0  0  0  0  0  0  0
   -2.9966   28.6310    2.5384 C   0  0  0  0  0  0  0  0  0  0  0  0
   -2.2077   27.5151    2.2715 C   0  0  0  0  0  0  0  0  0  0  0  0
   -1.0805   27.6643    1.5507 N   0  0  0  0  0  4  0  0  0  0  0  0
   -0.6998   28.8638    1.0796 C   0  0  0  0  0  0  0  0  0  0  0  0
   -1.5049   29.9530    1.3529 C   0  0  0  0  0  0  0  0  0  0  0  0
   -2.6444   29.8441    2.0699 N   0  0  0  0  0  0  0  0  0  0  0  0
   -4.0347   26.6561    4.7641 C   0  0  0  0  0  0  0  0  0  0  0  0
   -3.0377   26.0840    5.5714 C   0  0  0  0  0  0  0  0  0  0  0  0
   -2.8930   24.6953    5.6555 C   0  0  0  0  0  0  0  0  0  0  0  0
   -3.7419   23.8556    4.9365 C   0  0  0  0  0  0  0  0  0  0  0  0
   -4.7414   24.4061    4.1413 C   0  0  0  0  0  0  0  0  0  0  0  0
   -5.7824   23.3780    3.2398 Cl  0  0  0  0  0  0  0  0  0  0  0  0
   -4.8940   25.7901    4.0582 C   0  0  0  0  0  0  0  0  0  0  0  0
  1  2  1  0
  2  3  1  0
  3  4  1  0
  4  5  2  0
  5  6  1  0
  6  7  2  0
  7  8  1  0
  8  9  2  0
  2 10  1  0
 10 11  2  0
 11 12  1  0
 12 13  2  0
 13 14  1  0
 14 15  1  0
 14 16  2  0
  9  4  1  0
 16 10  1  0
M  CHG  1   6   1
M  END
>  <Energy>  (874) 
44.823365405666266

>  <Energy_Delta>  (874) 
1.4876544759985677

>  <std_smi>  (874) 
CC(Nc1cnccn1)c1cccc(Cl)c1

>  <enum_smi>  (874) 
CC(Nc1c[nH+]ccn1)c1cccc(Cl)c1

>  <enum_code>  (874) 
M

>  <parent_uuid>  (874) 
6620cc01-fc2b-4cc4-81f0-045e40704b17

>  <o3da_score>  (874) 
69.385205092426887

>  <o3da_score_rel>  (874) 
0.27623258285729541

>  <o3da_align>  (874) 
0.43977954260163227

>  <RMSD>  (874) 
6.8196882951888574e-05

>  <CONVERGED>  (874) 
0

>  <ENERGY>  (874) 
44.823365364300038

$$$$
c44c42dc-c0cd-4199-826b-e185ee42980b
     RDKit          3D

 16 17  0  0  0  0  0  0  0  0999 V2000
   -4.1205   30.1353    5.6597 C   0  0  0  0  0  0  0  0  0  0  0  0
   -3.6152   28.9157    4.8799 C   0  0  0  0  0  0  0  0  0  0  0  0
   -4.6851   27.9019    4.8712 N   0  0  0  0  0  0  0  0  0  0  0  0
   -4.3006   26.5616    4.7866 C   0  0  0  0  0  0  0  0  0  0  0  0
   -5.2824   25.5732    4.7079 C   0  0  0  0  0  0  0  0  0  0  0  0
   -4.9214   24.2768    4.6847 N   0  0  0  0  0  4  0  0  0  0  0  0
   -3.6319   23.9048    4.7465 C   0  0  0  0  0  0  0  0  0  0  0  0
   -2.6766   24.8962    4.8438 C   0  0  0  0  0  0  0  0  0  0  0  0
   -3.0028   26.2061    4.8747 N   0  0  0  0  0  0  0  0  0  0  0  0
   -3.2232   29.2514    3.4473 C   0  0  0  0  0  0  0  0  0  0  0  0
   -4.0201   30.0563    2.6149 C   0  0  0  0  0  0  0  0  0  0  0  0
   -3.6409   30.3166    1.2947 C   0  0  0  0  0  0  0  0  0  0  0  0
   -2.4668   29.7679    0.7817 C   0  0  0  0  0  0  0  0  0  0  0  0
   -1.6737   28.9619    1.5921 C   0  0  0  0  0  0  0  0  0  0  0  0
   -0.2352   28.2613    0.9608 Cl  0  0  0  0  0  0  0  0  0  0  0  0
   -2.0431   28.7055    2.9127 C   0  0  0  0  0  0  0  0  0  0  0  0
  1  2  1  0
  2  3  1  0
  3  4  1  0
  4  5  2  0
  5  6  1  0
  6  7  2  0
  7  8  1  0
  8  9  2  0
  2 10  1  0
 10 11  2  0
 11 12  1  0
 12 13  2  0
 13 14  1  0
 14 15  1  0
 14 16  2  0
  9  4  1  0
 16 10  1  0
M  CHG  1   6   1
M  END
>  <Energy>  (875) 
45.894594952435199

>  <Energy_Delta>  (875) 
2.5588840227675007

>  <std_smi>  (875) 
CC(Nc1cnccn1)c1cccc(Cl)c1

>  <enum_smi>  (875) 
CC(Nc1c[nH+]ccn1)c1cccc(Cl)c1

>  <enum_code>  (875) 
M

>  <parent_uuid>  (875) 
6620cc01-fc2b-4cc4-81f0-045e40704b17

>  <o3da_score>  (875) 
83.037731208832923

>  <o3da_score_rel>  (875) 
0.33058527298248663

>  <o3da_align>  (875) 
0.3294232300356067

>  <RMSD>  (875) 
6.1697458516804971e-05

>  <CONVERGED>  (875) 
0

>  <ENERGY>  (875) 
45.894594948067571

$$$$
c44c42dc-c0cd-4199-826b-e185ee42980b
     RDKit          3D

 16 17  0  0  0  0  0  0  0  0999 V2000
   -2.7308   29.1489    3.8420 C   0  0  0  0  0  0  0  0  0  0  0  0
   -3.6225   28.9104    5.0641 C   0  0  0  0  0  0  0  0  0  0  0  0
   -4.6643   27.9098    4.7670 N   0  0  0  0  0  0  0  0  0  0  0  0
   -4.2886   26.5652    4.7942 C   0  0  0  0  0  0  0  0  0  0  0  0
   -5.2265   25.5910    4.4486 C   0  0  0  0  0  0  0  0  0  0  0  0
   -4.8598   24.2964    4.4219 N   0  0  0  0  0  4  0  0  0  0  0  0
   -3.6061   23.9152    4.7193 C   0  0  0  0  0  0  0  0  0  0  0  0
   -2.6934   24.8959    5.0554 C   0  0  0  0  0  0  0  0  0  0  0  0
   -3.0243   26.2049    5.0909 N   0  0  0  0  0  0  0  0  0  0  0  0
   -4.3167   30.2018    5.4805 C   0  0  0  0  0  0  0  0  0  0  0  0
   -4.0578   30.7674    6.7397 C   0  0  0  0  0  0  0  0  0  0  0  0
   -4.6945   31.9461    7.1370 C   0  0  0  0  0  0  0  0  0  0  0  0
   -5.6010   32.5741    6.2838 C   0  0  0  0  0  0  0  0  0  0  0  0
   -5.8667   32.0221    5.0341 C   0  0  0  0  0  0  0  0  0  0  0  0
   -6.9914   32.7861    3.9808 Cl  0  0  0  0  0  0  0  0  0  0  0  0
   -5.2324   30.8470    4.6301 C   0  0  0  0  0  0  0  0  0  0  0  0
  1  2  1  0
  2  3  1  0
  3  4  1  0
  4  5  2  0
  5  6  1  0
  6  7  2  0
  7  8  1  0
  8  9  2  0
  2 10  1  0
 10 11  2  0
 11 12  1  0
 12 13  2  0
 13 14  1  0
 14 15  1  0
 14 16  2  0
  9  4  1  0
 16 10  1  0
M  CHG  1   6   1
M  END
>  <Energy>  (876) 
45.928535093152782

>  <Energy_Delta>  (876) 
2.5928241634850835

>  <std_smi>  (876) 
CC(Nc1cnccn1)c1cccc(Cl)c1

>  <enum_smi>  (876) 
CC(Nc1c[nH+]ccn1)c1cccc(Cl)c1

>  <enum_code>  (876) 
M

>  <parent_uuid>  (876) 
6620cc01-fc2b-4cc4-81f0-045e40704b17

>  <o3da_score>  (876) 
70.477595232472979

>  <o3da_score_rel>  (876) 
0.28058154672460417

>  <o3da_align>  (876) 
0.26309384109585376

>  <RMSD>  (876) 
6.952508156232304e-05

>  <CONVERGED>  (876) 
0

>  <ENERGY>  (876) 
45.928535086214573

$$$$
c44c42dc-c0cd-4199-826b-e185ee42980b
     RDKit          3D

 16 17  0  0  0  0  0  0  0  0999 V2000
   -3.3753   28.9673    6.4888 C   0  0  0  0  0  0  0  0  0  0  0  0
   -3.2600   28.7572    4.9761 C   0  0  0  0  0  0  0  0  0  0  0  0
   -4.3457   27.8901    4.4820 N   0  0  0  0  0  0  0  0  0  0  0  0
   -4.2041   26.5138    4.6716 C   0  0  0  0  0  0  0  0  0  0  0  0
   -5.2415   25.6646    4.2833 C   0  0  0  0  0  0  0  0  0  0  0  0
   -5.1363   24.3421    4.5087 N   0  0  0  0  0  4  0  0  0  0  0  0
   -4.0526   23.8149    5.1033 C   0  0  0  0  0  0  0  0  0  0  0  0
   -3.0395   24.6736    5.4823 C   0  0  0  0  0  0  0  0  0  0  0  0
   -3.1106   26.0064    5.2743 N   0  0  0  0  0  0  0  0  0  0  0  0
   -3.3521   30.0896    4.2419 C   0  0  0  0  0  0  0  0  0  0  0  0
   -2.2643   30.5543    3.4847 C   0  0  0  0  0  0  0  0  0  0  0  0
   -2.3393   31.7698    2.7995 C   0  0  0  0  0  0  0  0  0  0  0  0
   -3.5027   32.5361    2.8583 C   0  0  0  0  0  0  0  0  0  0  0  0
   -4.5876   32.0851    3.6043 C   0  0  0  0  0  0  0  0  0  0  0  0
   -6.0293   33.0206    3.6729 Cl  0  0  0  0  0  0  0  0  0  0  0  0
   -4.5185   30.8738    4.2930 C   0  0  0  0  0  0  0  0  0  0  0  0
  1  2  1  0
  2  3  1  0
  3  4  1  0
  4  5  2  0
  5  6  1  0
  6  7  2  0
  7  8  1  0
  8  9  2  0
  2 10  1  0
 10 11  2  0
 11 12  1  0
 12 13  2  0
 13 14  1  0
 14 15  1  0
 14 16  2  0
  9  4  1  0
 16 10  1  0
M  CHG  1   6   1
M  END
>  <Energy>  (877) 
45.928535115848931

>  <Energy_Delta>  (877) 
2.5928241861812324

>  <std_smi>  (877) 
CC(Nc1cnccn1)c1cccc(Cl)c1

>  <enum_smi>  (877) 
CC(Nc1c[nH+]ccn1)c1cccc(Cl)c1

>  <enum_code>  (877) 
M

>  <parent_uuid>  (877) 
6620cc01-fc2b-4cc4-81f0-045e40704b17

>  <o3da_score>  (877) 
76.003920473542422

>  <o3da_score_rel>  (877) 
0.30258265046158361

>  <o3da_align>  (877) 
0.52626301265426001

>  <RMSD>  (877) 
8.0791188263008379e-05

>  <CONVERGED>  (877) 
0

>  <ENERGY>  (877) 
45.928535086192312

$$$$
c44c42dc-c0cd-4199-826b-e185ee42980b
     RDKit          3D

 16 17  0  0  0  0  0  0  0  0999 V2000
   -3.8246   28.6822    6.2453 C   0  0  0  0  0  0  0  0  0  0  0  0
   -4.1147   28.0268    4.8909 C   0  0  0  0  0  0  0  0  0  0  0  0
   -3.2048   28.5290    3.8574 N   0  0  0  0  0  0  0  0  0  0  0  0
   -3.3211   29.8298    3.4111 C   0  0  0  0  0  0  0  0  0  0  0  0
   -4.5023   30.3721    2.9119 C   0  0  0  0  0  0  0  0  0  0  0  0
   -4.4991   31.6348    2.4442 N   0  0  0  0  0  4  0  0  0  0  0  0
   -3.3819   32.3828    2.4467 C   0  0  0  0  0  0  0  0  0  0  0  0
   -2.2234   31.8176    2.9442 C   0  0  0  0  0  0  0  0  0  0  0  0
   -2.1863   30.5541    3.4193 N   0  0  0  0  0  0  0  0  0  0  0  0
   -3.9881   26.5131    4.9173 C   0  0  0  0  0  0  0  0  0  0  0  0
   -2.9258   25.8576    5.5634 C   0  0  0  0  0  0  0  0  0  0  0  0
   -2.8292   24.4629    5.5492 C   0  0  0  0  0  0  0  0  0  0  0  0
   -3.7851   23.7008    4.8804 C   0  0  0  0  0  0  0  0  0  0  0  0
   -4.8326   24.3374    4.2231 C   0  0  0  0  0  0  0  0  0  0  0  0
   -6.0110   23.4070    3.3835 Cl  0  0  0  0  0  0  0  0  0  0  0  0
   -4.9359   25.7296    4.2352 C   0  0  0  0  0  0  0  0  0  0  0  0
  1  2  1  0
  2  3  1  0
  3  4  1  0
  4  5  2  0
  5  6  1  0
  6  7  2  0
  7  8  1  0
  8  9  2  0
  2 10  1  0
 10 11  2  0
 11 12  1  0
 12 13  2  0
 13 14  1  0
 14 15  1  0
 14 16  2  0
  9  4  1  0
 16 10  1  0
M  CHG  1   6   1
M  END
>  <Energy>  (878) 
46.120419893198402

>  <Energy_Delta>  (878) 
2.7847089635307043

>  <std_smi>  (878) 
CC(Nc1cnccn1)c1cccc(Cl)c1

>  <enum_smi>  (878) 
CC(Nc1c[nH+]ccn1)c1cccc(Cl)c1

>  <enum_code>  (878) 
M

>  <parent_uuid>  (878) 
6620cc01-fc2b-4cc4-81f0-045e40704b17

>  <o3da_score>  (878) 
67.950189054259397

>  <o3da_score_rel>  (878) 
0.27051957550743438

>  <o3da_align>  (878) 
0.45124141713149729

>  <RMSD>  (878) 
7.0253828172180322e-05

>  <CONVERGED>  (878) 
0

>  <ENERGY>  (878) 
46.120419888179789

$$$$
c44c42dc-c0cd-4199-826b-e185ee42980b
     RDKit          3D

 16 17  0  0  0  0  0  0  0  0999 V2000
   -5.6874   28.5461    4.9724 C   0  0  0  0  0  0  0  0  0  0  0  0
   -4.2615   28.0770    4.6642 C   0  0  0  0  0  0  0  0  0  0  0  0
   -3.8191   28.5630    3.3541 N   0  0  0  0  0  0  0  0  0  0  0  0
   -3.5674   29.9072    3.1679 C   0  0  0  0  0  0  0  0  0  0  0  0
   -2.6889   30.6448    3.9571 C   0  0  0  0  0  0  0  0  0  0  0  0
   -2.4649   31.9383    3.6574 N   0  0  0  0  0  4  0  0  0  0  0  0
   -3.0684   32.5331    2.6135 C   0  0  0  0  0  0  0  0  0  0  0  0
   -3.9319   31.7759    1.8454 C   0  0  0  0  0  0  0  0  0  0  0  0
   -4.1800   30.4757    2.1125 N   0  0  0  0  0  0  0  0  0  0  0  0
   -4.1135   26.5650    4.6663 C   0  0  0  0  0  0  0  0  0  0  0  0
   -5.0532   25.7157    4.0570 C   0  0  0  0  0  0  0  0  0  0  0  0
   -4.8740   24.3291    4.0594 C   0  0  0  0  0  0  0  0  0  0  0  0
   -3.7484   23.7689    4.6602 C   0  0  0  0  0  0  0  0  0  0  0  0
   -2.8024   24.5988    5.2527 C   0  0  0  0  0  0  0  0  0  0  0  0
   -1.4027   23.9186    5.9859 Cl  0  0  0  0  0  0  0  0  0  0  0  0
   -2.9765   25.9840    5.2554 C   0  0  0  0  0  0  0  0  0  0  0  0
  1  2  1  0
  2  3  1  0
  3  4  1  0
  4  5  2  0
  5  6  1  0
  6  7  2  0
  7  8  1  0
  8  9  2  0
  2 10  1  0
 10 11  2  0
 11 12  1  0
 12 13  2  0
 13 14  1  0
 14 15  1  0
 14 16  2  0
  9  4  1  0
 16 10  1  0
M  CHG  1   6   1
M  END
>  <Energy>  (879) 
46.120419960852367

>  <Energy_Delta>  (879) 
2.7847090311846685

>  <std_smi>  (879) 
CC(Nc1cnccn1)c1cccc(Cl)c1

>  <enum_smi>  (879) 
CC(Nc1c[nH+]ccn1)c1cccc(Cl)c1

>  <enum_code>  (879) 
M

>  <parent_uuid>  (879) 
6620cc01-fc2b-4cc4-81f0-045e40704b17

>  <o3da_score>  (879) 
71.257286647046939

>  <o3da_score_rel>  (879) 
0.28368561153197236

>  <o3da_align>  (879) 
0.37051432103355286

>  <RMSD>  (879) 
5.9658026632741643e-05

>  <CONVERGED>  (879) 
0

>  <ENERGY>  (879) 
46.120419888024173

$$$$
c44c42dc-c0cd-4199-826b-e185ee42980b
     RDKit          3D

 16 17  0  0  0  0  0  0  0  0999 V2000
   -3.9421   28.9932    1.4673 C   0  0  0  0  0  0  0  0  0  0  0  0
   -2.7593   28.6796    2.3903 C   0  0  0  0  0  0  0  0  0  0  0  0
   -2.3881   29.8674    3.1743 N   0  0  0  0  0  0  0  0  0  0  0  0
   -1.6189   30.8513    2.5657 C   0  0  0  0  0  0  0  0  0  0  0  0
   -1.1933   31.9496    3.3133 C   0  0  0  0  0  0  0  0  0  0  0  0
   -0.3860   32.8659    2.7478 N   0  0  0  0  0  4  0  0  0  0  0  0
    0.0291   32.7469    1.4753 C   0  0  0  0  0  0  0  0  0  0  0  0
   -0.3949   31.6471    0.7563 C   0  0  0  0  0  0  0  0  0  0  0  0
   -1.2019   30.7060    1.2921 N   0  0  0  0  0  0  0  0  0  0  0  0
   -3.0206   27.5644    3.3959 C   0  0  0  0  0  0  0  0  0  0  0  0
   -4.3054   27.1760    3.8087 C   0  0  0  0  0  0  0  0  0  0  0  0
   -4.4774   26.1597    4.7545 C   0  0  0  0  0  0  0  0  0  0  0  0
   -3.3698   25.5223    5.3108 C   0  0  0  0  0  0  0  0  0  0  0  0
   -2.0908   25.9041    4.9204 C   0  0  0  0  0  0  0  0  0  0  0  0
   -0.7166   25.1351    5.6122 Cl  0  0  0  0  0  0  0  0  0  0  0  0
   -1.9133   26.9141    3.9747 C   0  0  0  0  0  0  0  0  0  0  0  0
  1  2  1  0
  2  3  1  0
  3  4  1  0
  4  5  2  0
  5  6  1  0
  6  7  2  0
  7  8  1  0
  8  9  2  0
  2 10  1  0
 10 11  2  0
 11 12  1  0
 12 13  2  0
 13 14  1  0
 14 15  1  0
 14 16  2  0
  9  4  1  0
 16 10  1  0
M  CHG  1   6   1
M  END
>  <Energy>  (880) 
46.176314679627787

>  <Energy_Delta>  (880) 
2.8406037499600885

>  <std_smi>  (880) 
CC(Nc1cnccn1)c1cccc(Cl)c1

>  <enum_smi>  (880) 
CC(Nc1c[nH+]ccn1)c1cccc(Cl)c1

>  <enum_code>  (880) 
M

>  <parent_uuid>  (880) 
6620cc01-fc2b-4cc4-81f0-045e40704b17

>  <o3da_score>  (880) 
71.215047642296526

>  <o3da_score_rel>  (880) 
0.28351745191690764

>  <o3da_align>  (880) 
0.64577281579336221

>  <RMSD>  (880) 
0.4439593179952715

>  <CONVERGED>  (880) 
0

>  <ENERGY>  (880) 
46.872742997717154

$$$$
c44c42dc-c0cd-4199-826b-e185ee42980b
     RDKit          3D

 16 17  0  0  0  0  0  0  0  0999 V2000
   -4.9239   29.5809    5.4058 C   0  0  0  0  0  0  0  0  0  0  0  0
   -3.6101   28.8559    5.0930 C   0  0  0  0  0  0  0  0  0  0  0  0
   -3.0557   29.3228    3.8131 N   0  0  0  0  0  0  0  0  0  0  0  0
   -2.3662   30.5287    3.7883 C   0  0  0  0  0  0  0  0  0  0  0  0
   -1.7686   30.9528    2.6012 C   0  0  0  0  0  0  0  0  0  0  0  0
   -1.0367   32.0822    2.5921 N   0  0  0  0  0  4  0  0  0  0  0  0
   -0.8598   32.8138    3.7052 C   0  0  0  0  0  0  0  0  0  0  0  0
   -1.4508   32.3708    4.8717 C   0  0  0  0  0  0  0  0  0  0  0  0
   -2.1887   31.2406    4.9191 N   0  0  0  0  0  0  0  0  0  0  0  0
   -3.7353   27.3410    4.9808 C   0  0  0  0  0  0  0  0  0  0  0  0
   -4.9415   26.6801    4.6974 C   0  0  0  0  0  0  0  0  0  0  0  0
   -4.9854   25.2865    4.5837 C   0  0  0  0  0  0  0  0  0  0  0  0
   -3.8244   24.5315    4.7407 C   0  0  0  0  0  0  0  0  0  0  0  0
   -2.6203   25.1728    5.0101 C   0  0  0  0  0  0  0  0  0  0  0  0
   -1.1786   24.2521    5.1900 Cl  0  0  0  0  0  0  0  0  0  0  0  0
   -2.5712   26.5619    5.1286 C   0  0  0  0  0  0  0  0  0  0  0  0
  1  2  1  0
  2  3  1  0
  3  4  1  0
  4  5  2  0
  5  6  1  0
  6  7  2  0
  7  8  1  0
  8  9  2  0
  2 10  1  0
 10 11  2  0
 11 12  1  0
 12 13  2  0
 13 14  1  0
 14 15  1  0
 14 16  2  0
  9  4  1  0
 16 10  1  0
M  CHG  1   6   1
M  END
>  <Energy>  (881) 
46.176314694267539

>  <Energy_Delta>  (881) 
2.840603764599841

>  <std_smi>  (881) 
CC(Nc1cnccn1)c1cccc(Cl)c1

>  <enum_smi>  (881) 
CC(Nc1c[nH+]ccn1)c1cccc(Cl)c1

>  <enum_code>  (881) 
M

>  <parent_uuid>  (881) 
6620cc01-fc2b-4cc4-81f0-045e40704b17

>  <o3da_score>  (881) 
77.815877671858388

>  <o3da_score_rel>  (881) 
0.30979631533799284

>  <o3da_align>  (881) 
0.49971334163333059

>  <RMSD>  (881) 
0.44399154659067963

>  <CONVERGED>  (881) 
0

>  <ENERGY>  (881) 
46.872742998179206

$$$$
c44c42dc-c0cd-4199-826b-e185ee42980b
     RDKit          3D

 16 17  0  0  0  0  0  0  0  0999 V2000
   -2.2424   28.7469    5.7388 C   0  0  0  0  0  0  0  0  0  0  0  0
   -3.4797   29.2070    4.9612 C   0  0  0  0  0  0  0  0  0  0  0  0
   -3.1305   29.5987    3.5918 N   0  0  0  0  0  0  0  0  0  0  0  0
   -2.3749   30.7328    3.3723 C   0  0  0  0  0  0  0  0  0  0  0  0
   -2.7137   31.9937    3.8552 C   0  0  0  0  0  0  0  0  0  0  0  0
   -1.9396   33.0486    3.5364 N   0  0  0  0  0  4  0  0  0  0  0  0
   -0.8493   32.9124    2.7615 C   0  0  0  0  0  0  0  0  0  0  0  0
   -0.5397   31.6502    2.2927 C   0  0  0  0  0  0  0  0  0  0  0  0
   -1.2927   30.5691    2.5886 N   0  0  0  0  0  0  0  0  0  0  0  0
   -4.5444   28.1256    4.8841 C   0  0  0  0  0  0  0  0  0  0  0  0
   -5.8655   28.4118    5.2700 C   0  0  0  0  0  0  0  0  0  0  0  0
   -6.8617   27.4342    5.1977 C   0  0  0  0  0  0  0  0  0  0  0  0
   -6.5556   26.1569    4.7323 C   0  0  0  0  0  0  0  0  0  0  0  0
   -5.2541   25.8627    4.3380 C   0  0  0  0  0  0  0  0  0  0  0  0
   -4.8713   24.2903    3.7547 Cl  0  0  0  0  0  0  0  0  0  0  0  0
   -4.2540   26.8341    4.4092 C   0  0  0  0  0  0  0  0  0  0  0  0
  1  2  1  0
  2  3  1  0
  3  4  1  0
  4  5  2  0
  5  6  1  0
  6  7  2  0
  7  8  1  0
  8  9  2  0
  2 10  1  0
 10 11  2  0
 11 12  1  0
 12 13  2  0
 13 14  1  0
 14 15  1  0
 14 16  2  0
  9  4  1  0
 16 10  1  0
M  CHG  1   6   1
M  END
>  <Energy>  (882) 
46.480256635294602

>  <Energy_Delta>  (882) 
3.1445457056269035

>  <std_smi>  (882) 
CC(Nc1cnccn1)c1cccc(Cl)c1

>  <enum_smi>  (882) 
CC(Nc1c[nH+]ccn1)c1cccc(Cl)c1

>  <enum_code>  (882) 
M

>  <parent_uuid>  (882) 
6620cc01-fc2b-4cc4-81f0-045e40704b17

>  <o3da_score>  (882) 
74.881235026775514

>  <o3da_score_rel>  (882) 
0.29811307657643604

>  <o3da_align>  (882) 
0.48200928159157219

>  <RMSD>  (882) 
0.00010363669231382134

>  <CONVERGED>  (882) 
0

>  <ENERGY>  (882) 
46.480256483791109

$$$$
c44c42dc-c0cd-4199-826b-e185ee42980b
     RDKit          3D

 16 17  0  0  0  0  0  0  0  0999 V2000
   -4.1572   30.2512    5.2094 C   0  0  0  0  0  0  0  0  0  0  0  0
   -3.5280   28.8701    4.9927 C   0  0  0  0  0  0  0  0  0  0  0  0
   -4.5968   27.9036    4.6767 N   0  0  0  0  0  0  0  0  0  0  0  0
   -4.2643   26.5476    4.7658 C   0  0  0  0  0  0  0  0  0  0  0  0
   -5.1539   25.5983    4.2620 C   0  0  0  0  0  0  0  0  0  0  0  0
   -4.8186   24.2954    4.2894 N   0  0  0  0  0  4  0  0  0  0  0  0
   -3.6452   23.8827    4.7979 C   0  0  0  0  0  0  0  0  0  0  0  0
   -2.7851   24.8384    5.3019 C   0  0  0  0  0  0  0  0  0  0  0  0
   -3.0876   26.1541    5.2923 N   0  0  0  0  0  0  0  0  0  0  0  0
   -2.5157   28.9353    3.8587 C   0  0  0  0  0  0  0  0  0  0  0  0
   -1.1414   28.8597    4.1379 C   0  0  0  0  0  0  0  0  0  0  0  0
   -0.1991   28.9219    3.1082 C   0  0  0  0  0  0  0  0  0  0  0  0
   -0.6173   29.0576    1.7851 C   0  0  0  0  0  0  0  0  0  0  0  0
   -1.9772   29.1347    1.4969 C   0  0  0  0  0  0  0  0  0  0  0  0
   -2.5004   29.2868   -0.1347 Cl  0  0  0  0  0  0  0  0  0  0  0  0
   -2.9224   29.0805    2.5210 C   0  0  0  0  0  0  0  0  0  0  0  0
  1  2  1  0
  2  3  1  0
  3  4  1  0
  4  5  2  0
  5  6  1  0
  6  7  2  0
  7  8  1  0
  8  9  2  0
  2 10  1  0
 10 11  2  0
 11 12  1  0
 12 13  2  0
 13 14  1  0
 14 15  1  0
 14 16  2  0
  9  4  1  0
 16 10  1  0
M  CHG  1   6   1
M  END
>  <Energy>  (883) 
46.924533700317333

>  <Energy_Delta>  (883) 
3.5888227706496352

>  <std_smi>  (883) 
CC(Nc1cnccn1)c1cccc(Cl)c1

>  <enum_smi>  (883) 
CC(Nc1c[nH+]ccn1)c1cccc(Cl)c1

>  <enum_code>  (883) 
M

>  <parent_uuid>  (883) 
6620cc01-fc2b-4cc4-81f0-045e40704b17

>  <o3da_score>  (883) 
81.993949328079353

>  <o3da_score_rel>  (883) 
0.3264298256580011

>  <o3da_align>  (883) 
0.39377997780096102

>  <RMSD>  (883) 
7.3236040513058879e-05

>  <CONVERGED>  (883) 
0

>  <ENERGY>  (883) 
46.92453366618296

$$$$
c44c42dc-c0cd-4199-826b-e185ee42980b
     RDKit          3D

 16 17  0  0  0  0  0  0  0  0999 V2000
   -6.0340   28.2722    5.3405 C   0  0  0  0  0  0  0  0  0  0  0  0
   -4.7320   28.0110    4.5732 C   0  0  0  0  0  0  0  0  0  0  0  0
   -4.8930   28.4743    3.1824 N   0  0  0  0  0  0  0  0  0  0  0  0
   -3.7184   28.6664    2.4461 C   0  0  0  0  0  0  0  0  0  0  0  0
   -3.8080   28.8805    1.0707 C   0  0  0  0  0  0  0  0  0  0  0  0
   -2.6820   29.0120    0.3454 N   0  0  0  0  0  4  0  0  0  0  0  0
   -1.4669   28.9476    0.9158 C   0  0  0  0  0  0  0  0  0  0  0  0
   -1.4015   28.7471    2.2803 C   0  0  0  0  0  0  0  0  0  0  0  0
   -2.5094   28.6129    3.0401 N   0  0  0  0  0  0  0  0  0  0  0  0
   -4.3830   26.5300    4.5892 C   0  0  0  0  0  0  0  0  0  0  0  0
   -5.2414   25.5612    4.0405 C   0  0  0  0  0  0  0  0  0  0  0  0
   -4.8962   24.2076    4.0575 C   0  0  0  0  0  0  0  0  0  0  0  0
   -3.6836   23.8033    4.6137 C   0  0  0  0  0  0  0  0  0  0  0  0
   -2.8213   24.7548    5.1516 C   0  0  0  0  0  0  0  0  0  0  0  0
   -1.3129   24.2639    5.8173 Cl  0  0  0  0  0  0  0  0  0  0  0  0
   -3.1646   26.1069    5.1454 C   0  0  0  0  0  0  0  0  0  0  0  0
  1  2  1  0
  2  3  1  0
  3  4  1  0
  4  5  2  0
  5  6  1  0
  6  7  2  0
  7  8  1  0
  8  9  2  0
  2 10  1  0
 10 11  2  0
 11 12  1  0
 12 13  2  0
 13 14  1  0
 14 15  1  0
 14 16  2  0
  9  4  1  0
 16 10  1  0
M  CHG  1   6   1
M  END
>  <Energy>  (884) 
47.060468884262278

>  <Energy_Delta>  (884) 
3.7247579545945797

>  <std_smi>  (884) 
CC(Nc1cnccn1)c1cccc(Cl)c1

>  <enum_smi>  (884) 
CC(Nc1c[nH+]ccn1)c1cccc(Cl)c1

>  <enum_code>  (884) 
M

>  <parent_uuid>  (884) 
6620cc01-fc2b-4cc4-81f0-045e40704b17

>  <o3da_score>  (884) 
72.705960775025204

>  <o3da_score_rel>  (884) 
0.2894529937218342

>  <o3da_align>  (884) 
0.32573415160022412

>  <RMSD>  (884) 
6.4189082971380802e-05

>  <CONVERGED>  (884) 
0

>  <ENERGY>  (884) 
47.060468857894811

$$$$
c44c42dc-c0cd-4199-826b-e185ee42980b
     RDKit          3D

 16 17  0  0  0  0  0  0  0  0999 V2000
   -4.5888   27.8576    7.3446 C   0  0  0  0  0  0  0  0  0  0  0  0
   -4.9721   27.4861    5.9090 C   0  0  0  0  0  0  0  0  0  0  0  0
   -4.8204   28.6237    4.9803 N   0  0  0  0  0  0  0  0  0  0  0  0
   -3.5574   29.0985    4.6355 C   0  0  0  0  0  0  0  0  0  0  0  0
   -3.4405   30.0195    3.5943 C   0  0  0  0  0  0  0  0  0  0  0  0
   -2.2209   30.4359    3.2064 N   0  0  0  0  0  4  0  0  0  0  0  0
   -1.1029   29.9859    3.8003 C   0  0  0  0  0  0  0  0  0  0  0  0
   -1.2392   29.0807    4.8324 C   0  0  0  0  0  0  0  0  0  0  0  0
   -2.4474   28.6449    5.2474 N   0  0  0  0  0  0  0  0  0  0  0  0
   -4.3746   26.2131    5.3288 C   0  0  0  0  0  0  0  0  0  0  0  0
   -5.0024   25.6024    4.2264 C   0  0  0  0  0  0  0  0  0  0  0  0
   -4.4843   24.4378    3.6546 C   0  0  0  0  0  0  0  0  0  0  0  0
   -3.3220   23.8679    4.1690 C   0  0  0  0  0  0  0  0  0  0  0  0
   -2.6860   24.4648    5.2537 C   0  0  0  0  0  0  0  0  0  0  0  0
   -1.2348   23.7805    5.8757 Cl  0  0  0  0  0  0  0  0  0  0  0  0
   -3.2061   25.6227    5.8352 C   0  0  0  0  0  0  0  0  0  0  0  0
  1  2  1  0
  2  3  1  0
  3  4  1  0
  4  5  2  0
  5  6  1  0
  6  7  2  0
  7  8  1  0
  8  9  2  0
  2 10  1  0
 10 11  2  0
 11 12  1  0
 12 13  2  0
 13 14  1  0
 14 15  1  0
 14 16  2  0
  9  4  1  0
 16 10  1  0
M  CHG  1   6   1
M  END
>  <Energy>  (885) 
50.050208355478233

>  <Energy_Delta>  (885) 
6.714497425810535

>  <std_smi>  (885) 
CC(Nc1cnccn1)c1cccc(Cl)c1

>  <enum_smi>  (885) 
CC(Nc1c[nH+]ccn1)c1cccc(Cl)c1

>  <enum_code>  (885) 
M

>  <parent_uuid>  (885) 
6620cc01-fc2b-4cc4-81f0-045e40704b17

>  <o3da_score>  (885) 
74.118459604094255

>  <o3da_score_rel>  (885) 
0.29507635679061667

>  <o3da_align>  (885) 
0.51540608864455806

>  <RMSD>  (885) 
0.18659557527825057

>  <CONVERGED>  (885) 
0

>  <ENERGY>  (885) 
50.474399002604208

$$$$
c44c42dc-c0cd-4199-826b-e185ee42980b
     RDKit          3D

 16 17  0  0  0  0  0  0  0  0999 V2000
   -3.6637   29.1314    5.4579 C   0  0  0  0  0  0  0  0  0  0  0  0
   -4.5899   28.1524    4.7294 C   0  0  0  0  0  0  0  0  0  0  0  0
   -4.9501   28.6448    3.3838 N   0  0  0  0  0  0  0  0  0  0  0  0
   -4.0051   28.6618    2.3608 C   0  0  0  0  0  0  0  0  0  0  0  0
   -4.4249   28.9207    1.0557 C   0  0  0  0  0  0  0  0  0  0  0  0
   -3.5357   28.8673    0.0471 N   0  0  0  0  0  4  0  0  0  0  0  0
   -2.2436   28.5708    0.2649 C   0  0  0  0  0  0  0  0  0  0  0  0
   -1.8469   28.3244    1.5635 C   0  0  0  0  0  0  0  0  0  0  0  0
   -2.7122   28.3709    2.5982 N   0  0  0  0  0  0  0  0  0  0  0  0
   -4.1871   26.6846    4.6977 C   0  0  0  0  0  0  0  0  0  0  0  0
   -2.9475   26.2200    5.1650 C   0  0  0  0  0  0  0  0  0  0  0  0
   -2.6256   24.8597    5.1175 C   0  0  0  0  0  0  0  0  0  0  0  0
   -3.5360   23.9410    4.5988 C   0  0  0  0  0  0  0  0  0  0  0  0
   -4.7685   24.3857    4.1323 C   0  0  0  0  0  0  0  0  0  0  0  0
   -5.8930   23.2625    3.4746 Cl  0  0  0  0  0  0  0  0  0  0  0  0
   -5.0975   25.7402    4.1850 C   0  0  0  0  0  0  0  0  0  0  0  0
  1  2  1  0
  2  3  1  0
  3  4  1  0
  4  5  2  0
  5  6  1  0
  6  7  2  0
  7  8  1  0
  8  9  2  0
  2 10  1  0
 10 11  2  0
 11 12  1  0
 12 13  2  0
 13 14  1  0
 14 15  1  0
 14 16  2  0
  9  4  1  0
 16 10  1  0
M  CHG  1   6   1
M  END
>  <Energy>  (886) 
50.514478044590646

>  <Energy_Delta>  (886) 
7.1787671149229482

>  <std_smi>  (886) 
CC(Nc1cnccn1)c1cccc(Cl)c1

>  <enum_smi>  (886) 
CC(Nc1c[nH+]ccn1)c1cccc(Cl)c1

>  <enum_code>  (886) 
M

>  <parent_uuid>  (886) 
6620cc01-fc2b-4cc4-81f0-045e40704b17

>  <o3da_score>  (886) 
72.483587821002828

>  <o3da_score_rel>  (886) 
0.28856769468199739

>  <o3da_align>  (886) 
0.33308027455495182

>  <RMSD>  (886) 
6.8902556870225685e-05

>  <CONVERGED>  (886) 
0

>  <ENERGY>  (886) 
50.51447803582365

$$$$
41681eb9-a7f6-44d8-ae8f-1b7e0daafd9c
     RDKit          3D

 16 17  0  0  0  0  0  0  0  0999 V2000
   -4.5792   28.3456    6.8695 C   0  0  0  0  0  0  0  0  0  0  0  0
   -4.4489   28.1297    5.3594 C   0  0  0  0  0  0  0  0  0  0  0  0
   -3.4034   29.0705    4.8549 N   0  0  0  0  0  4  0  0  0  0  0  0
   -3.4855   29.2843    3.4339 C   0  0  0  0  0  0  0  0  0  0  0  0
   -2.8232   28.4967    2.4995 C   0  0  0  0  0  0  0  0  0  0  0  0
   -2.8929   28.7544    1.1741 N   0  0  0  0  0  0  0  0  0  0  0  0
   -3.6355   29.8291    0.8186 C   0  0  0  0  0  0  0  0  0  0  0  0
   -4.2818   30.6131    1.7608 C   0  0  0  0  0  0  0  0  0  0  0  0
   -4.2161   30.3571    3.0947 N   0  0  0  0  0  0  0  0  0  0  0  0
   -4.1395   26.6879    5.0092 C   0  0  0  0  0  0  0  0  0  0  0  0
   -4.9408   26.0105    4.0735 C   0  0  0  0  0  0  0  0  0  0  0  0
   -4.6522   24.6938    3.7061 C   0  0  0  0  0  0  0  0  0  0  0  0
   -3.5600   24.0333    4.2650 C   0  0  0  0  0  0  0  0  0  0  0  0
   -2.7612   24.6909    5.1937 C   0  0  0  0  0  0  0  0  0  0  0  0
   -1.4062   23.8896    5.8831 Cl  0  0  0  0  0  0  0  0  0  0  0  0
   -3.0422   26.0078    5.5670 C   0  0  0  0  0  0  0  0  0  0  0  0
  1  2  1  0
  2  3  1  0
  3  4  1  0
  4  5  2  0
  5  6  1  0
  6  7  2  0
  7  8  1  0
  8  9  2  0
  2 10  1  0
 10 11  2  0
 11 12  1  0
 12 13  2  0
 13 14  1  0
 14 15  1  0
 14 16  2  0
  9  4  1  0
 16 10  1  0
M  CHG  1   3   1
M  END
>  <Energy>  (887) 
30.023163113047818

>  <Energy_Delta>  (887) 
0

>  <std_smi>  (887) 
CC(Nc1cnccn1)c1cccc(Cl)c1

>  <enum_smi>  (887) 
CC([NH2+]c1cnccn1)c1cccc(Cl)c1

>  <enum_code>  (887) 
M

>  <parent_uuid>  (887) 
6620cc01-fc2b-4cc4-81f0-045e40704b17

>  <o3da_score>  (887) 
68.327492718600965

>  <o3da_score_rel>  (887) 
0.27202167621584561

>  <o3da_align>  (887) 
0.43190368702184473

>  <RMSD>  (887) 
7.6915769913311373e-05

>  <CONVERGED>  (887) 
0

>  <ENERGY>  (887) 
30.023163105257929

$$$$
41681eb9-a7f6-44d8-ae8f-1b7e0daafd9c
     RDKit          3D

 16 17  0  0  0  0  0  0  0  0999 V2000
   -6.1380   28.3130    5.3437 C   0  0  0  0  0  0  0  0  0  0  0  0
   -4.7204   28.0547    4.8261 C   0  0  0  0  0  0  0  0  0  0  0  0
   -4.6185   28.6566    3.4623 N   0  0  0  0  0  4  0  0  0  0  0  0
   -3.2567   28.8713    3.0486 C   0  0  0  0  0  0  0  0  0  0  0  0
   -2.4997   27.9197    2.3752 C   0  0  0  0  0  0  0  0  0  0  0  0
   -1.2360   28.1740    1.9673 N   0  0  0  0  0  0  0  0  0  0  0  0
   -0.7623   29.4113    2.2451 C   0  0  0  0  0  0  0  0  0  0  0  0
   -1.5311   30.3551    2.9072 C   0  0  0  0  0  0  0  0  0  0  0  0
   -2.8019   30.1037    3.3209 N   0  0  0  0  0  0  0  0  0  0  0  0
   -4.3664   26.5810    4.8301 C   0  0  0  0  0  0  0  0  0  0  0  0
   -3.1877   26.1491    5.4630 C   0  0  0  0  0  0  0  0  0  0  0  0
   -2.8207   24.8011    5.4467 C   0  0  0  0  0  0  0  0  0  0  0  0
   -3.6227   23.8639    4.7984 C   0  0  0  0  0  0  0  0  0  0  0  0
   -4.7925   24.2776    4.1710 C   0  0  0  0  0  0  0  0  0  0  0  0
   -5.7849   23.1323    3.3605 Cl  0  0  0  0  0  0  0  0  0  0  0  0
   -5.1672   25.6237    4.1821 C   0  0  0  0  0  0  0  0  0  0  0  0
  1  2  1  0
  2  3  1  0
  3  4  1  0
  4  5  2  0
  5  6  1  0
  6  7  2  0
  7  8  1  0
  8  9  2  0
  2 10  1  0
 10 11  2  0
 11 12  1  0
 12 13  2  0
 13 14  1  0
 14 15  1  0
 14 16  2  0
  9  4  1  0
 16 10  1  0
M  CHG  1   3   1
M  END
>  <Energy>  (888) 
30.023163116477807

>  <Energy_Delta>  (888) 
3.4299887374800164e-09

>  <std_smi>  (888) 
CC(Nc1cnccn1)c1cccc(Cl)c1

>  <enum_smi>  (888) 
CC([NH2+]c1cnccn1)c1cccc(Cl)c1

>  <enum_code>  (888) 
M

>  <parent_uuid>  (888) 
6620cc01-fc2b-4cc4-81f0-045e40704b17

>  <o3da_score>  (888) 
69.612164133713662

>  <o3da_score_rel>  (888) 
0.2771361397768714

>  <o3da_align>  (888) 
0.40010356725439278

>  <RMSD>  (888) 
6.2838562480254821e-05

>  <CONVERGED>  (888) 
0

>  <ENERGY>  (888) 
30.023163105272477

$$$$
41681eb9-a7f6-44d8-ae8f-1b7e0daafd9c
     RDKit          3D

 16 17  0  0  0  0  0  0  0  0999 V2000
   -5.9419   28.3691    5.2773 C   0  0  0  0  0  0  0  0  0  0  0  0
   -4.6172   28.0190    4.5941 C   0  0  0  0  0  0  0  0  0  0  0  0
   -4.6773   28.5400    3.1950 N   0  0  0  0  0  4  0  0  0  0  0  0
   -3.3774   28.6519    2.5867 C   0  0  0  0  0  0  0  0  0  0  0  0
   -2.7837   27.6300    1.8550 C   0  0  0  0  0  0  0  0  0  0  0  0
   -1.5790   27.7861    1.2623 N   0  0  0  0  0  0  0  0  0  0  0  0
   -0.9943   28.9969    1.4204 C   0  0  0  0  0  0  0  0  0  0  0  0
   -1.6016   30.0113    2.1432 C   0  0  0  0  0  0  0  0  0  0  0  0
   -2.8146   29.8599    2.7394 N   0  0  0  0  0  0  0  0  0  0  0  0
   -4.3189   26.5335    4.6399 C   0  0  0  0  0  0  0  0  0  0  0  0
   -5.2397   25.5722    4.1871 C   0  0  0  0  0  0  0  0  0  0  0  0
   -4.9175   24.2123    4.2083 C   0  0  0  0  0  0  0  0  0  0  0  0
   -3.6738   23.7924    4.6771 C   0  0  0  0  0  0  0  0  0  0  0  0
   -2.7549   24.7331    5.1287 C   0  0  0  0  0  0  0  0  0  0  0  0
   -1.2174   24.2252    5.7035 Cl  0  0  0  0  0  0  0  0  0  0  0  0
   -3.0691   26.0936    5.1124 C   0  0  0  0  0  0  0  0  0  0  0  0
  1  2  1  0
  2  3  1  0
  3  4  1  0
  4  5  2  0
  5  6  1  0
  6  7  2  0
  7  8  1  0
  8  9  2  0
  2 10  1  0
 10 11  2  0
 11 12  1  0
 12 13  2  0
 13 14  1  0
 14 15  1  0
 14 16  2  0
  9  4  1  0
 16 10  1  0
M  CHG  1   3   1
M  END
>  <Energy>  (889) 
30.233931742573546

>  <Energy_Delta>  (889) 
0.21076862952572739

>  <std_smi>  (889) 
CC(Nc1cnccn1)c1cccc(Cl)c1

>  <enum_smi>  (889) 
CC([NH2+]c1cnccn1)c1cccc(Cl)c1

>  <enum_code>  (889) 
M

>  <parent_uuid>  (889) 
6620cc01-fc2b-4cc4-81f0-045e40704b17

>  <o3da_score>  (889) 
79.395678359014312

>  <o3da_score_rel>  (889) 
0.31608573141208962

>  <o3da_align>  (889) 
0.54545275063148735

>  <RMSD>  (889) 
6.7468666671081511e-05

>  <CONVERGED>  (889) 
0

>  <ENERGY>  (889) 
30.233931742250025

$$$$
41681eb9-a7f6-44d8-ae8f-1b7e0daafd9c
     RDKit          3D

 16 17  0  0  0  0  0  0  0  0999 V2000
   -3.9279   30.2066    5.5382 C   0  0  0  0  0  0  0  0  0  0  0  0
   -3.5247   28.9564    4.7517 C   0  0  0  0  0  0  0  0  0  0  0  0
   -4.5507   27.9033    5.0175 N   0  0  0  0  0  4  0  0  0  0  0  0
   -4.0877   26.5801    4.6902 C   0  0  0  0  0  0  0  0  0  0  0  0
   -4.2571   25.9970    3.4399 C   0  0  0  0  0  0  0  0  0  0  0  0
   -3.8462   24.7355    3.1813 N   0  0  0  0  0  0  0  0  0  0  0  0
   -3.2687   24.0780    4.2141 C   0  0  0  0  0  0  0  0  0  0  0  0
   -3.1155   24.6667    5.4592 C   0  0  0  0  0  0  0  0  0  0  0  0
   -3.5293   25.9346    5.7250 N   0  0  0  0  0  0  0  0  0  0  0  0
   -3.3594   29.2343    3.2708 C   0  0  0  0  0  0  0  0  0  0  0  0
   -4.3693   29.8473    2.5083 C   0  0  0  0  0  0  0  0  0  0  0  0
   -4.1990   30.0546    1.1366 C   0  0  0  0  0  0  0  0  0  0  0  0
   -3.0232   29.6513    0.5059 C   0  0  0  0  0  0  0  0  0  0  0  0
   -2.0165   29.0450    1.2491 C   0  0  0  0  0  0  0  0  0  0  0  0
   -0.5658   28.5399    0.4793 Cl  0  0  0  0  0  0  0  0  0  0  0  0
   -2.1777   28.8354    2.6202 C   0  0  0  0  0  0  0  0  0  0  0  0
  1  2  1  0
  2  3  1  0
  3  4  1  0
  4  5  2  0
  5  6  1  0
  6  7  2  0
  7  8  1  0
  8  9  2  0
  2 10  1  0
 10 11  2  0
 11 12  1  0
 12 13  2  0
 13 14  1  0
 14 15  1  0
 14 16  2  0
  9  4  1  0
 16 10  1  0
M  CHG  1   3   1
M  END
>  <Energy>  (890) 
30.233931743277669

>  <Energy_Delta>  (890) 
0.21076863022985037

>  <std_smi>  (890) 
CC(Nc1cnccn1)c1cccc(Cl)c1

>  <enum_smi>  (890) 
CC([NH2+]c1cnccn1)c1cccc(Cl)c1

>  <enum_code>  (890) 
M

>  <parent_uuid>  (890) 
6620cc01-fc2b-4cc4-81f0-045e40704b17

>  <o3da_score>  (890) 
70.820947094862319

>  <o3da_score_rel>  (890) 
0.2819484803763867

>  <o3da_align>  (890) 
0.57449059731411234

>  <RMSD>  (890) 
6.0732658125921924e-05

>  <CONVERGED>  (890) 
0

>  <ENERGY>  (890) 
30.233931742078894

$$$$
41681eb9-a7f6-44d8-ae8f-1b7e0daafd9c
     RDKit          3D

 16 17  0  0  0  0  0  0  0  0999 V2000
   -4.9456   28.6195    4.9155 C   0  0  0  0  0  0  0  0  0  0  0  0
   -3.6516   27.9411    4.4579 C   0  0  0  0  0  0  0  0  0  0  0  0
   -3.3636   28.2606    3.0308 N   0  0  0  0  0  4  0  0  0  0  0  0
   -2.9827   29.6248    2.7964 C   0  0  0  0  0  0  0  0  0  0  0  0
   -1.7118   30.1171    3.0681 C   0  0  0  0  0  0  0  0  0  0  0  0
   -1.3750   31.4000    2.8112 N   0  0  0  0  0  0  0  0  0  0  0  0
   -2.3463   32.1667    2.2605 C   0  0  0  0  0  0  0  0  0  0  0  0
   -3.6055   31.6599    1.9811 C   0  0  0  0  0  0  0  0  0  0  0  0
   -3.9488   30.3703    2.2421 N   0  0  0  0  0  0  0  0  0  0  0  0
   -3.6965   26.4344    4.6326 C   0  0  0  0  0  0  0  0  0  0  0  0
   -2.6655   25.7788    5.3277 C   0  0  0  0  0  0  0  0  0  0  0  0
   -2.6729   24.3887    5.4718 C   0  0  0  0  0  0  0  0  0  0  0  0
   -3.7049   23.6319    4.9203 C   0  0  0  0  0  0  0  0  0  0  0  0
   -4.7292   24.2680    4.2277 C   0  0  0  0  0  0  0  0  0  0  0  0
   -6.0024   23.3433    3.5364 Cl  0  0  0  0  0  0  0  0  0  0  0  0
   -4.7304   25.6573    4.0798 C   0  0  0  0  0  0  0  0  0  0  0  0
  1  2  1  0
  2  3  1  0
  3  4  1  0
  4  5  2  0
  5  6  1  0
  6  7  2  0
  7  8  1  0
  8  9  2  0
  2 10  1  0
 10 11  2  0
 11 12  1  0
 12 13  2  0
 13 14  1  0
 14 15  1  0
 14 16  2  0
  9  4  1  0
 16 10  1  0
M  CHG  1   3   1
M  END
>  <Energy>  (891) 
31.407253545513658

>  <Energy_Delta>  (891) 
1.3840904324658396

>  <std_smi>  (891) 
CC(Nc1cnccn1)c1cccc(Cl)c1

>  <enum_smi>  (891) 
CC([NH2+]c1cnccn1)c1cccc(Cl)c1

>  <enum_code>  (891) 
M

>  <parent_uuid>  (891) 
6620cc01-fc2b-4cc4-81f0-045e40704b17

>  <o3da_score>  (891) 
68.199346426720595

>  <o3da_score_rel>  (891) 
0.27151150720874179

>  <o3da_align>  (891) 
0.57557047148349072

>  <RMSD>  (891) 
7.7413011030572545e-05

>  <CONVERGED>  (891) 
0

>  <ENERGY>  (891) 
31.407253542427735

$$$$
41681eb9-a7f6-44d8-ae8f-1b7e0daafd9c
     RDKit          3D

 16 17  0  0  0  0  0  0  0  0999 V2000
   -2.1768   28.8433    5.5112 C   0  0  0  0  0  0  0  0  0  0  0  0
   -3.5330   29.1997    4.8966 C   0  0  0  0  0  0  0  0  0  0  0  0
   -3.3666   29.6965    3.5013 N   0  0  0  0  0  4  0  0  0  0  0  0
   -2.7439   30.9864    3.4042 C   0  0  0  0  0  0  0  0  0  0  0  0
   -3.4175   32.1767    3.6506 C   0  0  0  0  0  0  0  0  0  0  0  0
   -2.8112   33.3775    3.5244 N   0  0  0  0  0  0  0  0  0  0  0  0
   -1.5159   33.3465    3.1296 C   0  0  0  0  0  0  0  0  0  0  0  0
   -0.8595   32.1533    2.8731 C   0  0  0  0  0  0  0  0  0  0  0  0
   -1.4658   30.9430    3.0029 N   0  0  0  0  0  0  0  0  0  0  0  0
   -4.4936   28.0249    4.8967 C   0  0  0  0  0  0  0  0  0  0  0  0
   -5.7801   28.1719    5.4439 C   0  0  0  0  0  0  0  0  0  0  0  0
   -6.6898   27.1112    5.4248 C   0  0  0  0  0  0  0  0  0  0  0  0
   -6.3322   25.8907    4.8551 C   0  0  0  0  0  0  0  0  0  0  0  0
   -5.0637   25.7332    4.3077 C   0  0  0  0  0  0  0  0  0  0  0  0
   -4.6155   24.2348    3.5950 Cl  0  0  0  0  0  0  0  0  0  0  0  0
   -4.1475   26.7879    4.3234 C   0  0  0  0  0  0  0  0  0  0  0  0
  1  2  1  0
  2  3  1  0
  3  4  1  0
  4  5  2  0
  5  6  1  0
  6  7  2  0
  7  8  1  0
  8  9  2  0
  2 10  1  0
 10 11  2  0
 11 12  1  0
 12 13  2  0
 13 14  1  0
 14 15  1  0
 14 16  2  0
  9  4  1  0
 16 10  1  0
M  CHG  1   3   1
M  END
>  <Energy>  (892) 
31.407253550609319

>  <Energy_Delta>  (892) 
1.3840904375615004

>  <std_smi>  (892) 
CC(Nc1cnccn1)c1cccc(Cl)c1

>  <enum_smi>  (892) 
CC([NH2+]c1cnccn1)c1cccc(Cl)c1

>  <enum_code>  (892) 
M

>  <parent_uuid>  (892) 
6620cc01-fc2b-4cc4-81f0-045e40704b17

>  <o3da_score>  (892) 
73.070527061890559

>  <o3da_score_rel>  (892) 
0.29090438507982419

>  <o3da_align>  (892) 
0.50416170810549488

>  <RMSD>  (892) 
6.7506569236415641e-05

>  <CONVERGED>  (892) 
0

>  <ENERGY>  (892) 
31.407253542402351

$$$$
41681eb9-a7f6-44d8-ae8f-1b7e0daafd9c
     RDKit          3D

 16 17  0  0  0  0  0  0  0  0999 V2000
   -4.2208   30.8156    3.4857 C   0  0  0  0  0  0  0  0  0  0  0  0
   -3.1539   29.7240    3.6085 C   0  0  0  0  0  0  0  0  0  0  0  0
   -1.7965   30.3242    3.7418 N   0  0  0  0  0  4  0  0  0  0  0  0
   -1.3190   30.9771    2.5560 C   0  0  0  0  0  0  0  0  0  0  0  0
   -0.8094   30.2890    1.4614 C   0  0  0  0  0  0  0  0  0  0  0  0
   -0.3420   30.9334    0.3698 N   0  0  0  0  0  0  0  0  0  0  0  0
   -0.3883   32.2861    0.4173 C   0  0  0  0  0  0  0  0  0  0  0  0
   -0.8859   32.9609    1.5207 C   0  0  0  0  0  0  0  0  0  0  0  0
   -1.3604   32.3155    2.6196 N   0  0  0  0  0  0  0  0  0  0  0  0
   -3.3998   28.7937    4.7821 C   0  0  0  0  0  0  0  0  0  0  0  0
   -3.6470   29.2788    6.0785 C   0  0  0  0  0  0  0  0  0  0  0  0
   -3.8329   28.3966    7.1466 C   0  0  0  0  0  0  0  0  0  0  0  0
   -3.7677   27.0199    6.9400 C   0  0  0  0  0  0  0  0  0  0  0  0
   -3.5181   26.5275    5.6639 C   0  0  0  0  0  0  0  0  0  0  0  0
   -3.4264   24.8319    5.3998 Cl  0  0  0  0  0  0  0  0  0  0  0  0
   -3.3323   27.4020    4.5905 C   0  0  0  0  0  0  0  0  0  0  0  0
  1  2  1  0
  2  3  1  0
  3  4  1  0
  4  5  2  0
  5  6  1  0
  6  7  2  0
  7  8  1  0
  8  9  2  0
  2 10  1  0
 10 11  2  0
 11 12  1  0
 12 13  2  0
 13 14  1  0
 14 15  1  0
 14 16  2  0
  9  4  1  0
 16 10  1  0
M  CHG  1   3   1
M  END
>  <Energy>  (893) 
31.466324514686484

>  <Energy_Delta>  (893) 
1.4431614016386654

>  <std_smi>  (893) 
CC(Nc1cnccn1)c1cccc(Cl)c1

>  <enum_smi>  (893) 
CC([NH2+]c1cnccn1)c1cccc(Cl)c1

>  <enum_code>  (893) 
M

>  <parent_uuid>  (893) 
6620cc01-fc2b-4cc4-81f0-045e40704b17

>  <o3da_score>  (893) 
72.107133342241028

>  <o3da_score_rel>  (893) 
0.28706897470476234

>  <o3da_align>  (893) 
0.52319873086222957

>  <RMSD>  (893) 
6.7507411273938655e-05

>  <CONVERGED>  (893) 
0

>  <ENERGY>  (893) 
31.466324507903796

$$$$
41681eb9-a7f6-44d8-ae8f-1b7e0daafd9c
     RDKit          3D

 16 17  0  0  0  0  0  0  0  0999 V2000
   -5.6198   28.5282    5.0894 C   0  0  0  0  0  0  0  0  0  0  0  0
   -4.2163   28.0711    4.6820 C   0  0  0  0  0  0  0  0  0  0  0  0
   -3.8499   28.6171    3.3449 N   0  0  0  0  0  4  0  0  0  0  0  0
   -3.6423   30.0373    3.3222 C   0  0  0  0  0  0  0  0  0  0  0  0
   -2.4824   30.6442    3.7886 C   0  0  0  0  0  0  0  0  0  0  0  0
   -2.3053   31.9823    3.7288 N   0  0  0  0  0  0  0  0  0  0  0  0
   -3.3194   32.6883    3.1743 C   0  0  0  0  0  0  0  0  0  0  0  0
   -4.4652   32.0696    2.6998 C   0  0  0  0  0  0  0  0  0  0  0  0
   -4.6482   30.7236    2.7617 N   0  0  0  0  0  0  0  0  0  0  0  0
   -4.0777   26.5600    4.6532 C   0  0  0  0  0  0  0  0  0  0  0  0
   -4.9944   25.7405    3.9711 C   0  0  0  0  0  0  0  0  0  0  0  0
   -4.8193   24.3543    3.9313 C   0  0  0  0  0  0  0  0  0  0  0  0
   -3.7252   23.7661    4.5632 C   0  0  0  0  0  0  0  0  0  0  0  0
   -2.8084   24.5659    5.2361 C   0  0  0  0  0  0  0  0  0  0  0  0
   -1.4508   23.8518    6.0108 Cl  0  0  0  0  0  0  0  0  0  0  0  0
   -2.9763   25.9520    5.2820 C   0  0  0  0  0  0  0  0  0  0  0  0
  1  2  1  0
  2  3  1  0
  3  4  1  0
  4  5  2  0
  5  6  1  0
  6  7  2  0
  7  8  1  0
  8  9  2  0
  2 10  1  0
 10 11  2  0
 11 12  1  0
 12 13  2  0
 13 14  1  0
 14 15  1  0
 14 16  2  0
  9  4  1  0
 16 10  1  0
M  CHG  1   3   1
M  END
>  <Energy>  (894) 
31.466324520476604

>  <Energy_Delta>  (894) 
1.4431614074287857

>  <std_smi>  (894) 
CC(Nc1cnccn1)c1cccc(Cl)c1

>  <enum_smi>  (894) 
CC([NH2+]c1cnccn1)c1cccc(Cl)c1

>  <enum_code>  (894) 
M

>  <parent_uuid>  (894) 
6620cc01-fc2b-4cc4-81f0-045e40704b17

>  <o3da_score>  (894) 
70.365485355690367

>  <o3da_score_rel>  (894) 
0.28013522101602956

>  <o3da_align>  (894) 
0.40354069322543068

>  <RMSD>  (894) 
6.5096568183242319e-05

>  <CONVERGED>  (894) 
0

>  <ENERGY>  (894) 
31.466324506705238

$$$$
41681eb9-a7f6-44d8-ae8f-1b7e0daafd9c
     RDKit          3D

 16 17  0  0  0  0  0  0  0  0999 V2000
   -3.8590   29.0878    3.1207 C   0  0  0  0  0  0  0  0  0  0  0  0
   -3.5443   28.9184    4.6091 C   0  0  0  0  0  0  0  0  0  0  0  0
   -4.4783   27.9345    5.2297 N   0  0  0  0  0  4  0  0  0  0  0  0
   -4.1808   26.5689    4.8990 C   0  0  0  0  0  0  0  0  0  0  0  0
   -4.8341   25.8749    3.8878 C   0  0  0  0  0  0  0  0  0  0  0  0
   -4.5618   24.5783    3.6213 N   0  0  0  0  0  0  0  0  0  0  0  0
   -3.6265   23.9969    4.4091 C   0  0  0  0  0  0  0  0  0  0  0  0
   -2.9917   24.6950    5.4238 C   0  0  0  0  0  0  0  0  0  0  0  0
   -3.2608   26.0007    5.6923 N   0  0  0  0  0  0  0  0  0  0  0  0
   -3.6216   30.2249    5.3787 C   0  0  0  0  0  0  0  0  0  0  0  0
   -2.6084   30.5480    6.2988 C   0  0  0  0  0  0  0  0  0  0  0  0
   -2.6723   31.7250    7.0494 C   0  0  0  0  0  0  0  0  0  0  0  0
   -3.7517   32.5934    6.9001 C   0  0  0  0  0  0  0  0  0  0  0  0
   -4.7644   32.2818    5.9997 C   0  0  0  0  0  0  0  0  0  0  0  0
   -6.1069   33.3397    5.8169 Cl  0  0  0  0  0  0  0  0  0  0  0  0
   -4.7081   31.1073    5.2444 C   0  0  0  0  0  0  0  0  0  0  0  0
  1  2  1  0
  2  3  1  0
  3  4  1  0
  4  5  2  0
  5  6  1  0
  6  7  2  0
  7  8  1  0
  8  9  2  0
  2 10  1  0
 10 11  2  0
 11 12  1  0
 12 13  2  0
 13 14  1  0
 14 15  1  0
 14 16  2  0
  9  4  1  0
 16 10  1  0
M  CHG  1   3   1
M  END
>  <Energy>  (895) 
31.639813558578702

>  <Energy_Delta>  (895) 
1.6166504455308832

>  <std_smi>  (895) 
CC(Nc1cnccn1)c1cccc(Cl)c1

>  <enum_smi>  (895) 
CC([NH2+]c1cnccn1)c1cccc(Cl)c1

>  <enum_code>  (895) 
M

>  <parent_uuid>  (895) 
6620cc01-fc2b-4cc4-81f0-045e40704b17

>  <o3da_score>  (895) 
64.548280972425033

>  <o3da_score_rel>  (895) 
0.25697608515042769

>  <o3da_align>  (895) 
0.52446165269341816

>  <RMSD>  (895) 
5.4751205804471296e-05

>  <CONVERGED>  (895) 
0

>  <ENERGY>  (895) 
31.639813551112319

$$$$
41681eb9-a7f6-44d8-ae8f-1b7e0daafd9c
     RDKit          3D

 16 17  0  0  0  0  0  0  0  0999 V2000
   -4.0580   31.6479    4.0140 C   0  0  0  0  0  0  0  0  0  0  0  0
   -3.3943   30.2909    3.7671 C   0  0  0  0  0  0  0  0  0  0  0  0
   -1.9091   30.4199    3.8244 N   0  0  0  0  0  4  0  0  0  0  0  0
   -1.3382   31.0346    2.6586 C   0  0  0  0  0  0  0  0  0  0  0  0
   -1.0050   32.3824    2.5993 C   0  0  0  0  0  0  0  0  0  0  0  0
   -0.4339   32.9285    1.5030 N   0  0  0  0  0  0  0  0  0  0  0  0
   -0.1944   32.0791    0.4762 C   0  0  0  0  0  0  0  0  0  0  0  0
   -0.5181   30.7339    0.5520 C   0  0  0  0  0  0  0  0  0  0  0  0
   -1.0961   30.1819    1.6523 N   0  0  0  0  0  0  0  0  0  0  0  0
   -3.8358   29.2311    4.7608 C   0  0  0  0  0  0  0  0  0  0  0  0
   -4.1731   27.9463    4.2991 C   0  0  0  0  0  0  0  0  0  0  0  0
   -4.5460   26.9397    5.1938 C   0  0  0  0  0  0  0  0  0  0  0  0
   -4.5799   27.1964    6.5628 C   0  0  0  0  0  0  0  0  0  0  0  0
   -4.2407   28.4602    7.0332 C   0  0  0  0  0  0  0  0  0  0  0  0
   -4.2668   28.7842    8.7211 Cl  0  0  0  0  0  0  0  0  0  0  0  0
   -3.8675   29.4730    6.1455 C   0  0  0  0  0  0  0  0  0  0  0  0
  1  2  1  0
  2  3  1  0
  3  4  1  0
  4  5  2  0
  5  6  1  0
  6  7  2  0
  7  8  1  0
  8  9  2  0
  2 10  1  0
 10 11  2  0
 11 12  1  0
 12 13  2  0
 13 14  1  0
 14 15  1  0
 14 16  2  0
  9  4  1  0
 16 10  1  0
M  CHG  1   3   1
M  END
>  <Energy>  (896) 
31.639813566961625

>  <Energy_Delta>  (896) 
1.616650453913806

>  <std_smi>  (896) 
CC(Nc1cnccn1)c1cccc(Cl)c1

>  <enum_smi>  (896) 
CC([NH2+]c1cnccn1)c1cccc(Cl)c1

>  <enum_code>  (896) 
M

>  <parent_uuid>  (896) 
6620cc01-fc2b-4cc4-81f0-045e40704b17

>  <o3da_score>  (896) 
77.077946039843397

>  <o3da_score_rel>  (896) 
0.30685850229251621

>  <o3da_align>  (896) 
0.46670657871543619

>  <RMSD>  (896) 
6.5919180148084428e-05

>  <CONVERGED>  (896) 
0

>  <ENERGY>  (896) 
31.639813569187282

$$$$
41681eb9-a7f6-44d8-ae8f-1b7e0daafd9c
     RDKit          3D

 16 17  0  0  0  0  0  0  0  0999 V2000
   -0.5397   27.5416    1.9416 C   0  0  0  0  0  0  0  0  0  0  0  0
   -1.6986   28.2656    2.6316 C   0  0  0  0  0  0  0  0  0  0  0  0
   -2.2880   29.2878    1.7186 N   0  0  0  0  0  4  0  0  0  0  0  0
   -1.4864   30.4717    1.5840 C   0  0  0  0  0  0  0  0  0  0  0  0
   -0.6129   30.6791    0.5234 C   0  0  0  0  0  0  0  0  0  0  0  0
    0.1024   31.8190    0.4006 N   0  0  0  0  0  0  0  0  0  0  0  0
   -0.0966   32.7482    1.3654 C   0  0  0  0  0  0  0  0  0  0  0  0
   -0.9809   32.5360    2.4108 C   0  0  0  0  0  0  0  0  0  0  0  0
   -1.6998   31.3888    2.5386 N   0  0  0  0  0  0  0  0  0  0  0  0
   -2.7998   27.3267    3.0921 C   0  0  0  0  0  0  0  0  0  0  0  0
   -3.2763   26.2732    2.2930 C   0  0  0  0  0  0  0  0  0  0  0  0
   -4.3207   25.4571    2.7377 C   0  0  0  0  0  0  0  0  0  0  0  0
   -4.9115   25.6851    3.9793 C   0  0  0  0  0  0  0  0  0  0  0  0
   -4.4563   26.7301    4.7754 C   0  0  0  0  0  0  0  0  0  0  0  0
   -5.1855   27.0271    6.3028 Cl  0  0  0  0  0  0  0  0  0  0  0  0
   -3.4126   27.5493    4.3393 C   0  0  0  0  0  0  0  0  0  0  0  0
  1  2  1  0
  2  3  1  0
  3  4  1  0
  4  5  2  0
  5  6  1  0
  6  7  2  0
  7  8  1  0
  8  9  2  0
  2 10  1  0
 10 11  2  0
 11 12  1  0
 12 13  2  0
 13 14  1  0
 14 15  1  0
 14 16  2  0
  9  4  1  0
 16 10  1  0
M  CHG  1   3   1
M  END
>  <Energy>  (897) 
31.815018163150722

>  <Energy_Delta>  (897) 
1.7918550501029031

>  <std_smi>  (897) 
CC(Nc1cnccn1)c1cccc(Cl)c1

>  <enum_smi>  (897) 
CC([NH2+]c1cnccn1)c1cccc(Cl)c1

>  <enum_code>  (897) 
M

>  <parent_uuid>  (897) 
6620cc01-fc2b-4cc4-81f0-045e40704b17

>  <o3da_score>  (897) 
68.536127991087653

>  <o3da_score_rel>  (897) 
0.27285228354946039

>  <o3da_align>  (897) 
0.38857613528375462

>  <RMSD>  (897) 
7.1099922124636528e-05

>  <CONVERGED>  (897) 
0

>  <ENERGY>  (897) 
31.815018158949329

$$$$
41681eb9-a7f6-44d8-ae8f-1b7e0daafd9c
     RDKit          3D

 16 17  0  0  0  0  0  0  0  0999 V2000
   -4.7719   29.5709    5.5209 C   0  0  0  0  0  0  0  0  0  0  0  0
   -3.5268   28.8477    5.0010 C   0  0  0  0  0  0  0  0  0  0  0  0
   -3.1426   29.3765    3.6599 N   0  0  0  0  0  4  0  0  0  0  0  0
   -2.5073   30.6636    3.7078 C   0  0  0  0  0  0  0  0  0  0  0  0
   -3.1888   31.8539    3.4857 C   0  0  0  0  0  0  0  0  0  0  0  0
   -2.5594   33.0497    3.4995 N   0  0  0  0  0  0  0  0  0  0  0  0
   -1.2253   33.0125    3.7282 C   0  0  0  0  0  0  0  0  0  0  0  0
   -0.5538   31.8181    3.9345 C   0  0  0  0  0  0  0  0  0  0  0  0
   -1.1849   30.6136    3.9241 N   0  0  0  0  0  0  0  0  0  0  0  0
   -3.7083   27.3433    4.9010 C   0  0  0  0  0  0  0  0  0  0  0  0
   -4.8766   26.7568    4.3845 C   0  0  0  0  0  0  0  0  0  0  0  0
   -4.9868   25.3677    4.2710 C   0  0  0  0  0  0  0  0  0  0  0  0
   -3.9318   24.5445    4.6605 C   0  0  0  0  0  0  0  0  0  0  0  0
   -2.7668   25.1122    5.1637 C   0  0  0  0  0  0  0  0  0  0  0  0
   -1.4556   24.1067    5.6358 Cl  0  0  0  0  0  0  0  0  0  0  0  0
   -2.6488   26.4988    5.2817 C   0  0  0  0  0  0  0  0  0  0  0  0
  1  2  1  0
  2  3  1  0
  3  4  1  0
  4  5  2  0
  5  6  1  0
  6  7  2  0
  7  8  1  0
  8  9  2  0
  2 10  1  0
 10 11  2  0
 11 12  1  0
 12 13  2  0
 13 14  1  0
 14 15  1  0
 14 16  2  0
  9  4  1  0
 16 10  1  0
M  CHG  1   3   1
M  END
>  <Energy>  (898) 
31.815018164816163

>  <Energy_Delta>  (898) 
1.7918550517683443

>  <std_smi>  (898) 
CC(Nc1cnccn1)c1cccc(Cl)c1

>  <enum_smi>  (898) 
CC([NH2+]c1cnccn1)c1cccc(Cl)c1

>  <enum_code>  (898) 
M

>  <parent_uuid>  (898) 
6620cc01-fc2b-4cc4-81f0-045e40704b17

>  <o3da_score>  (898) 
68.881218949589453

>  <o3da_score_rel>  (898) 
0.27422614079555008

>  <o3da_align>  (898) 
0.46130759385574976

>  <RMSD>  (898) 
6.4199708837030305e-05

>  <CONVERGED>  (898) 
0

>  <ENERGY>  (898) 
31.815018159615615

$$$$
41681eb9-a7f6-44d8-ae8f-1b7e0daafd9c
     RDKit          3D

 16 17  0  0  0  0  0  0  0  0999 V2000
   -5.0928   28.5340    6.3088 C   0  0  0  0  0  0  0  0  0  0  0  0
   -3.8031   28.8069    5.5312 C   0  0  0  0  0  0  0  0  0  0  0  0
   -4.1904   29.2173    4.1485 N   0  0  0  0  0  4  0  0  0  0  0  0
   -3.0779   29.5623    3.3033 C   0  0  0  0  0  0  0  0  0  0  0  0
   -2.2969   30.6976    3.4834 C   0  0  0  0  0  0  0  0  0  0  0  0
   -1.2728   30.9973    2.6545 N   0  0  0  0  0  0  0  0  0  0  0  0
   -1.0662   30.1288    1.6356 C   0  0  0  0  0  0  0  0  0  0  0  0
   -1.8641   29.0100    1.4557 C   0  0  0  0  0  0  0  0  0  0  0  0
   -2.8980   28.7092    2.2853 N   0  0  0  0  0  0  0  0  0  0  0  0
   -2.8563   27.6242    5.5713 C   0  0  0  0  0  0  0  0  0  0  0  0
   -1.5572   27.7853    6.0841 C   0  0  0  0  0  0  0  0  0  0  0  0
   -0.6599   26.7143    6.1064 C   0  0  0  0  0  0  0  0  0  0  0  0
   -1.0439   25.4680    5.6158 C   0  0  0  0  0  0  0  0  0  0  0  0
   -2.3262   25.2953    5.1065 C   0  0  0  0  0  0  0  0  0  0  0  0
   -2.8077   23.7632    4.4935 Cl  0  0  0  0  0  0  0  0  0  0  0  0
   -3.2306   26.3598    5.0826 C   0  0  0  0  0  0  0  0  0  0  0  0
  1  2  1  0
  2  3  1  0
  3  4  1  0
  4  5  2  0
  5  6  1  0
  6  7  2  0
  7  8  1  0
  8  9  2  0
  2 10  1  0
 10 11  2  0
 11 12  1  0
 12 13  2  0
 13 14  1  0
 14 15  1  0
 14 16  2  0
  9  4  1  0
 16 10  1  0
M  CHG  1   3   1
M  END
>  <Energy>  (899) 
31.976904162159233

>  <Energy_Delta>  (899) 
1.9537410491114144

>  <std_smi>  (899) 
CC(Nc1cnccn1)c1cccc(Cl)c1

>  <enum_smi>  (899) 
CC([NH2+]c1cnccn1)c1cccc(Cl)c1

>  <enum_code>  (899) 
M

>  <parent_uuid>  (899) 
6620cc01-fc2b-4cc4-81f0-045e40704b17

>  <o3da_score>  (899) 
71.463882935750092

>  <o3da_score_rel>  (899) 
0.28450810137488891

>  <o3da_align>  (899) 
0.56116176973749166

>  <RMSD>  (899) 
7.0132355922127666e-05

>  <CONVERGED>  (899) 
0

>  <ENERGY>  (899) 
31.97690415160853

$$$$
41681eb9-a7f6-44d8-ae8f-1b7e0daafd9c
     RDKit          3D

 16 17  0  0  0  0  0  0  0  0999 V2000
   -6.3087   28.1570    5.4398 C   0  0  0  0  0  0  0  0  0  0  0  0
   -4.9339   27.9961    4.7856 C   0  0  0  0  0  0  0  0  0  0  0  0
   -4.9901   28.6668    3.4523 N   0  0  0  0  0  4  0  0  0  0  0  0
   -3.7234   28.7227    2.7713 C   0  0  0  0  0  0  0  0  0  0  0  0
   -2.6711   29.5363    3.1741 C   0  0  0  0  0  0  0  0  0  0  0  0
   -1.5015   29.5755    2.4992 N   0  0  0  0  0  0  0  0  0  0  0  0
   -1.4260   28.7815    1.4044 C   0  0  0  0  0  0  0  0  0  0  0  0
   -2.4895   27.9894    1.0017 C   0  0  0  0  0  0  0  0  0  0  0  0
   -3.6697   27.9528    1.6755 N   0  0  0  0  0  0  0  0  0  0  0  0
   -4.4974   26.5467    4.7052 C   0  0  0  0  0  0  0  0  0  0  0  0
   -5.3065   25.5553    4.1228 C   0  0  0  0  0  0  0  0  0  0  0  0
   -4.8621   24.2329    4.0344 C   0  0  0  0  0  0  0  0  0  0  0  0
   -3.6038   23.8811    4.5189 C   0  0  0  0  0  0  0  0  0  0  0  0
   -2.7924   24.8529    5.0936 C   0  0  0  0  0  0  0  0  0  0  0  0
   -1.2348   24.4311    5.6850 Cl  0  0  0  0  0  0  0  0  0  0  0  0
   -3.2299   26.1757    5.1895 C   0  0  0  0  0  0  0  0  0  0  0  0
  1  2  1  0
  2  3  1  0
  3  4  1  0
  4  5  2  0
  5  6  1  0
  6  7  2  0
  7  8  1  0
  8  9  2  0
  2 10  1  0
 10 11  2  0
 11 12  1  0
 12 13  2  0
 13 14  1  0
 14 15  1  0
 14 16  2  0
  9  4  1  0
 16 10  1  0
M  CHG  1   3   1
M  END
>  <Energy>  (900) 
32.129384194566924

>  <Energy_Delta>  (900) 
2.1062210815191058

>  <std_smi>  (900) 
CC(Nc1cnccn1)c1cccc(Cl)c1

>  <enum_smi>  (900) 
CC([NH2+]c1cnccn1)c1cccc(Cl)c1

>  <enum_code>  (900) 
M

>  <parent_uuid>  (900) 
6620cc01-fc2b-4cc4-81f0-045e40704b17

>  <o3da_score>  (900) 
69.987167229109147

>  <o3da_score_rel>  (900) 
0.2786290815860451

>  <o3da_align>  (900) 
0.3869226152868811

>  <RMSD>  (900) 
6.5282298409830974e-05

>  <CONVERGED>  (900) 
0

>  <ENERGY>  (900) 
32.129384189690086

$$$$
41681eb9-a7f6-44d8-ae8f-1b7e0daafd9c
     RDKit          3D

 16 17  0  0  0  0  0  0  0  0999 V2000
   -4.4084   28.4590    6.9329 C   0  0  0  0  0  0  0  0  0  0  0  0
   -4.4226   28.1334    5.4369 C   0  0  0  0  0  0  0  0  0  0  0  0
   -3.4799   29.0759    4.7635 N   0  0  0  0  0  4  0  0  0  0  0  0
   -3.4893   28.9867    3.3271 C   0  0  0  0  0  0  0  0  0  0  0  0
   -4.5458   29.4260    2.5381 C   0  0  0  0  0  0  0  0  0  0  0  0
   -4.5119   29.3419    1.1903 N   0  0  0  0  0  0  0  0  0  0  0  0
   -3.3827   28.8135    0.6609 C   0  0  0  0  0  0  0  0  0  0  0  0
   -2.3279   28.3971    1.4576 C   0  0  0  0  0  0  0  0  0  0  0  0
   -2.3568   28.4863    2.8138 N   0  0  0  0  0  0  0  0  0  0  0  0
   -4.1085   26.6768    5.1588 C   0  0  0  0  0  0  0  0  0  0  0  0
   -2.9553   26.0524    5.6659 C   0  0  0  0  0  0  0  0  0  0  0  0
   -2.6766   24.7162    5.3648 C   0  0  0  0  0  0  0  0  0  0  0  0
   -3.5389   23.9854    4.5497 C   0  0  0  0  0  0  0  0  0  0  0  0
   -4.6806   24.5923    4.0386 C   0  0  0  0  0  0  0  0  0  0  0  0
   -5.7451   23.7027    3.0241 Cl  0  0  0  0  0  0  0  0  0  0  0  0
   -4.9688   25.9258    4.3374 C   0  0  0  0  0  0  0  0  0  0  0  0
  1  2  1  0
  2  3  1  0
  3  4  1  0
  4  5  2  0
  5  6  1  0
  6  7  2  0
  7  8  1  0
  8  9  2  0
  2 10  1  0
 10 11  2  0
 11 12  1  0
 12 13  2  0
 13 14  1  0
 14 15  1  0
 14 16  2  0
  9  4  1  0
 16 10  1  0
M  CHG  1   3   1
M  END
>  <Energy>  (901) 
32.129384205132368

>  <Energy_Delta>  (901) 
2.1062210920845494

>  <std_smi>  (901) 
CC(Nc1cnccn1)c1cccc(Cl)c1

>  <enum_smi>  (901) 
CC([NH2+]c1cnccn1)c1cccc(Cl)c1

>  <enum_code>  (901) 
M

>  <parent_uuid>  (901) 
6620cc01-fc2b-4cc4-81f0-045e40704b17

>  <o3da_score>  (901) 
73.918126401051808

>  <o3da_score_rel>  (901) 
0.2942788012017159

>  <o3da_align>  (901) 
0.48945630341305868

>  <RMSD>  (901) 
6.1185844491784341e-05

>  <CONVERGED>  (901) 
0

>  <ENERGY>  (901) 
32.12938418970117

$$$$
41681eb9-a7f6-44d8-ae8f-1b7e0daafd9c
     RDKit          3D

 16 17  0  0  0  0  0  0  0  0999 V2000
   -5.1621   29.0994    3.2156 C   0  0  0  0  0  0  0  0  0  0  0  0
   -4.0887   28.9820    4.3012 C   0  0  0  0  0  0  0  0  0  0  0  0
   -4.4736   27.9318    5.2941 N   0  0  0  0  0  4  0  0  0  0  0  0
   -4.1920   26.5733    4.9126 C   0  0  0  0  0  0  0  0  0  0  0  0
   -5.0128   25.8147    4.0881 C   0  0  0  0  0  0  0  0  0  0  0  0
   -4.7308   24.5272    3.7876 N   0  0  0  0  0  0  0  0  0  0  0  0
   -3.6108   24.0207    4.3558 C   0  0  0  0  0  0  0  0  0  0  0  0
   -2.8148   24.7775    5.2000 C   0  0  0  0  0  0  0  0  0  0  0  0
   -3.1002   26.0703    5.5070 N   0  0  0  0  0  0  0  0  0  0  0  0
   -2.6566   28.8737    3.8127 C   0  0  0  0  0  0  0  0  0  0  0  0
   -2.3146   28.3019    2.5753 C   0  0  0  0  0  0  0  0  0  0  0  0
   -0.9768   28.1911    2.1829 C   0  0  0  0  0  0  0  0  0  0  0  0
    0.0414   28.6429    3.0196 C   0  0  0  0  0  0  0  0  0  0  0  0
   -0.2808   29.2068    4.2482 C   0  0  0  0  0  0  0  0  0  0  0  0
    0.9662   29.7608    5.2933 Cl  0  0  0  0  0  0  0  0  0  0  0  0
   -1.6145   29.3238    4.6464 C   0  0  0  0  0  0  0  0  0  0  0  0
  1  2  1  0
  2  3  1  0
  3  4  1  0
  4  5  2  0
  5  6  1  0
  6  7  2  0
  7  8  1  0
  8  9  2  0
  2 10  1  0
 10 11  2  0
 11 12  1  0
 12 13  2  0
 13 14  1  0
 14 15  1  0
 14 16  2  0
  9  4  1  0
 16 10  1  0
M  CHG  1   3   1
M  END
>  <Energy>  (902) 
34.775543436792496

>  <Energy_Delta>  (902) 
4.7523803237446778

>  <std_smi>  (902) 
CC(Nc1cnccn1)c1cccc(Cl)c1

>  <enum_smi>  (902) 
CC([NH2+]c1cnccn1)c1cccc(Cl)c1

>  <enum_code>  (902) 
M

>  <parent_uuid>  (902) 
6620cc01-fc2b-4cc4-81f0-045e40704b17

>  <o3da_score>  (902) 
71.458445302251292

>  <o3da_score_rel>  (902) 
0.28448645336586442

>  <o3da_align>  (902) 
0.4701052259825188

>  <RMSD>  (902) 
7.7915104103739574e-05

>  <CONVERGED>  (902) 
0

>  <ENERGY>  (902) 
34.775543428515938

$$$$
ed0163c0-031a-4561-bfa2-561b081dc6d5
     RDKit          3D

 16 17  0  0  0  0  0  0  0  0999 V2000
   -2.4251   28.0566    5.9616 C   0  0  0  0  0  0  0  0  0  0  0  0
   -3.4529   28.8465    5.1509 C   0  0  0  0  0  0  0  0  0  0  0  0
   -4.6323   27.9965    4.8838 N   0  0  0  0  0  0  0  0  0  0  0  0
   -5.7592   28.4298    4.2353 C   0  0  0  0  0  0  0  0  0  0  0  0
   -6.1103   29.7767    3.9982 C   0  0  0  0  0  0  0  0  0  0  0  0
   -7.2459   30.0731    3.3365 N   0  0  0  0  0  4  0  0  0  0  0  0
   -8.0804   29.1166    2.8945 C   0  0  0  0  0  0  0  0  0  0  0  0
   -7.7588   27.7835    3.1350 C   0  0  0  0  0  0  0  0  0  0  0  0
   -6.6231   27.4920    3.7939 N   0  0  0  0  0  4  0  0  0  0  0  0
   -2.8501   29.3512    3.8529 C   0  0  0  0  0  0  0  0  0  0  0  0
   -2.4682   30.6984    3.7359 C   0  0  0  0  0  0  0  0  0  0  0  0
   -1.9277   31.1857    2.5428 C   0  0  0  0  0  0  0  0  0  0  0  0
   -1.7589   30.3358    1.4506 C   0  0  0  0  0  0  0  0  0  0  0  0
   -2.1128   28.9957    1.5619 C   0  0  0  0  0  0  0  0  0  0  0  0
   -1.9281   27.9393    0.2199 Cl  0  0  0  0  0  0  0  0  0  0  0  0
   -2.6420   28.4990    2.7545 C   0  0  0  0  0  0  0  0  0  0  0  0
  1  2  1  0
  2  3  1  0
  3  4  1  0
  4  5  2  0
  5  6  1  0
  6  7  2  0
  7  8  1  0
  8  9  2  0
  2 10  1  0
 10 11  2  0
 11 12  1  0
 12 13  2  0
 13 14  1  0
 14 15  1  0
 14 16  2  0
  9  4  1  0
 16 10  1  0
M  CHG  2   6   1   9   1
M  END
>  <Energy>  (903) 
138.04078018851433

>  <Energy_Delta>  (903) 
0

>  <std_smi>  (903) 
CC(Nc1cnccn1)c1cccc(Cl)c1

>  <enum_smi>  (903) 
CC(Nc1c[nH+]cc[nH+]1)c1cccc(Cl)c1

>  <enum_code>  (903) 
M

>  <parent_uuid>  (903) 
6620cc01-fc2b-4cc4-81f0-045e40704b17

>  <o3da_score>  (903) 
68.666542417558773

>  <o3da_score_rel>  (903) 
0.27337148232992059

>  <o3da_align>  (903) 
0.37503584816160906

>  <RMSD>  (903) 
0.00016471221347261631

>  <CONVERGED>  (903) 
0

>  <ENERGY>  (903) 
138.04077967644488

$$$$
ed0163c0-031a-4561-bfa2-561b081dc6d5
     RDKit          3D

 16 17  0  0  0  0  0  0  0  0999 V2000
   -4.4399   30.3177    5.1307 C   0  0  0  0  0  0  0  0  0  0  0  0
   -3.7416   29.0250    4.7056 C   0  0  0  0  0  0  0  0  0  0  0  0
   -4.6404   27.8754    4.9436 N   0  0  0  0  0  0  0  0  0  0  0  0
   -4.2483   26.5703    4.7740 C   0  0  0  0  0  0  0  0  0  0  0  0
   -2.9180   26.0980    4.8094 C   0  0  0  0  0  0  0  0  0  0  0  0
   -2.6601   24.7874    4.6325 N   0  0  0  0  0  4  0  0  0  0  0  0
   -3.6422   23.8915    4.4344 C   0  0  0  0  0  0  0  0  0  0  0  0
   -4.9616   24.3361    4.4191 C   0  0  0  0  0  0  0  0  0  0  0  0
   -5.2142   25.6457    4.5933 N   0  0  0  0  0  4  0  0  0  0  0  0
   -3.3273   29.0578    3.2464 C   0  0  0  0  0  0  0  0  0  0  0  0
   -4.2720   29.1420    2.2086 C   0  0  0  0  0  0  0  0  0  0  0  0
   -3.8659   29.1391    0.8714 C   0  0  0  0  0  0  0  0  0  0  0  0
   -2.5126   29.0479    0.5498 C   0  0  0  0  0  0  0  0  0  0  0  0
   -1.5680   28.9787    1.5678 C   0  0  0  0  0  0  0  0  0  0  0  0
    0.1014   28.8414    1.1873 Cl  0  0  0  0  0  0  0  0  0  0  0  0
   -1.9653   28.9942    2.9065 C   0  0  0  0  0  0  0  0  0  0  0  0
  1  2  1  0
  2  3  1  0
  3  4  1  0
  4  5  2  0
  5  6  1  0
  6  7  2  0
  7  8  1  0
  8  9  2  0
  2 10  1  0
 10 11  2  0
 11 12  1  0
 12 13  2  0
 13 14  1  0
 14 15  1  0
 14 16  2  0
  9  4  1  0
 16 10  1  0
M  CHG  2   6   1   9   1
M  END
>  <Energy>  (904) 
138.50225646357609

>  <Energy_Delta>  (904) 
0.46147627506175581

>  <std_smi>  (904) 
CC(Nc1cnccn1)c1cccc(Cl)c1

>  <enum_smi>  (904) 
CC(Nc1c[nH+]cc[nH+]1)c1cccc(Cl)c1

>  <enum_code>  (904) 
M

>  <parent_uuid>  (904) 
6620cc01-fc2b-4cc4-81f0-045e40704b17

>  <o3da_score>  (904) 
80.816867910087723

>  <o3da_score_rel>  (904) 
0.3217436935078975

>  <o3da_align>  (904) 
0.40043045941158445

>  <RMSD>  (904) 
8.5000821159103299e-05

>  <CONVERGED>  (904) 
0

>  <ENERGY>  (904) 
138.50225634886436

$$$$
ed0163c0-031a-4561-bfa2-561b081dc6d5
     RDKit          3D

 16 17  0  0  0  0  0  0  0  0999 V2000
   -2.4715   27.6995    5.8632 C   0  0  0  0  0  0  0  0  0  0  0  0
   -3.3924   28.6878    5.1458 C   0  0  0  0  0  0  0  0  0  0  0  0
   -4.6739   28.0253    4.8225 N   0  0  0  0  0  0  0  0  0  0  0  0
   -5.7476   28.6923    4.2858 C   0  0  0  0  0  0  0  0  0  0  0  0
   -5.9867   30.0808    4.3806 C   0  0  0  0  0  0  0  0  0  0  0  0
   -7.0836   30.6192    3.8128 N   0  0  0  0  0  4  0  0  0  0  0  0
   -7.9856   29.8673    3.1588 C   0  0  0  0  0  0  0  0  0  0  0  0
   -7.7775   28.4931    3.0750 C   0  0  0  0  0  0  0  0  0  0  0  0
   -6.6797   27.9604    3.6409 N   0  0  0  0  0  4  0  0  0  0  0  0
   -2.7624   29.2315    3.8772 C   0  0  0  0  0  0  0  0  0  0  0  0
   -2.4515   28.3992    2.7876 C   0  0  0  0  0  0  0  0  0  0  0  0
   -1.9003   28.9300    1.6181 C   0  0  0  0  0  0  0  0  0  0  0  0
   -1.6552   30.2984    1.5168 C   0  0  0  0  0  0  0  0  0  0  0  0
   -1.9451   31.1295    2.5932 C   0  0  0  0  0  0  0  0  0  0  0  0
   -1.6715   32.8212    2.4747 Cl  0  0  0  0  0  0  0  0  0  0  0  0
   -2.4840   30.6047    3.7697 C   0  0  0  0  0  0  0  0  0  0  0  0
  1  2  1  0
  2  3  1  0
  3  4  1  0
  4  5  2  0
  5  6  1  0
  6  7  2  0
  7  8  1  0
  8  9  2  0
  2 10  1  0
 10 11  2  0
 11 12  1  0
 12 13  2  0
 13 14  1  0
 14 15  1  0
 14 16  2  0
  9  4  1  0
 16 10  1  0
M  CHG  2   6   1   9   1
M  END
>  <Energy>  (905) 
138.50225658193864

>  <Energy_Delta>  (905) 
0.4614763934243058

>  <std_smi>  (905) 
CC(Nc1cnccn1)c1cccc(Cl)c1

>  <enum_smi>  (905) 
CC(Nc1c[nH+]cc[nH+]1)c1cccc(Cl)c1

>  <enum_code>  (905) 
M

>  <parent_uuid>  (905) 
6620cc01-fc2b-4cc4-81f0-045e40704b17

>  <o3da_score>  (905) 
69.7327644124572

>  <o3da_score_rel>  (905) 
0.27761626700927289

>  <o3da_align>  (905) 
0.44192063199115822

>  <RMSD>  (905) 
5.3445128849649179e-05

>  <CONVERGED>  (905) 
0

>  <ENERGY>  (905) 
138.50225635008124

$$$$
ed0163c0-031a-4561-bfa2-561b081dc6d5
     RDKit          3D

 16 17  0  0  0  0  0  0  0  0999 V2000
   -5.5576   28.2124    6.3091 C   0  0  0  0  0  0  0  0  0  0  0  0
   -4.8360   28.1192    4.9655 C   0  0  0  0  0  0  0  0  0  0  0  0
   -3.8243   29.1895    4.8749 N   0  0  0  0  0  0  0  0  0  0  0  0
   -3.0207   29.4410    3.7796 C   0  0  0  0  0  0  0  0  0  0  0  0
   -2.1553   30.5587    3.7572 C   0  0  0  0  0  0  0  0  0  0  0  0
   -1.4111   30.8166    2.6650 N   0  0  0  0  0  4  0  0  0  0  0  0
   -1.4697   30.0398    1.5691 C   0  0  0  0  0  0  0  0  0  0  0  0
   -2.3312   28.9453    1.5674 C   0  0  0  0  0  0  0  0  0  0  0  0
   -3.0773   28.6939    2.6584 N   0  0  0  0  0  4  0  0  0  0  0  0
   -4.2127   26.7498    4.7723 C   0  0  0  0  0  0  0  0  0  0  0  0
   -4.8547   25.8034    3.9547 C   0  0  0  0  0  0  0  0  0  0  0  0
   -4.2857   24.5460    3.7376 C   0  0  0  0  0  0  0  0  0  0  0  0
   -3.0713   24.2132    4.3360 C   0  0  0  0  0  0  0  0  0  0  0  0
   -2.4403   25.1315    5.1679 C   0  0  0  0  0  0  0  0  0  0  0  0
   -0.9359   24.7420    5.8991 Cl  0  0  0  0  0  0  0  0  0  0  0  0
   -3.0077   26.3866    5.3977 C   0  0  0  0  0  0  0  0  0  0  0  0
  1  2  1  0
  2  3  1  0
  3  4  1  0
  4  5  2  0
  5  6  1  0
  6  7  2  0
  7  8  1  0
  8  9  2  0
  2 10  1  0
 10 11  2  0
 11 12  1  0
 12 13  2  0
 13 14  1  0
 14 15  1  0
 14 16  2  0
  9  4  1  0
 16 10  1  0
M  CHG  2   6   1   9   1
M  END
>  <Energy>  (906) 
138.52065991379146

>  <Energy_Delta>  (906) 
0.47987972527712941

>  <std_smi>  (906) 
CC(Nc1cnccn1)c1cccc(Cl)c1

>  <enum_smi>  (906) 
CC(Nc1c[nH+]cc[nH+]1)c1cccc(Cl)c1

>  <enum_code>  (906) 
M

>  <parent_uuid>  (906) 
6620cc01-fc2b-4cc4-81f0-045e40704b17

>  <o3da_score>  (906) 
90.342211394396458

>  <o3da_score_rel>  (906) 
0.3596654699120822

>  <o3da_align>  (906) 
0.53146899992794827

>  <RMSD>  (906) 
0.11153079626517771

>  <CONVERGED>  (906) 
0

>  <ENERGY>  (906) 
138.99146181273713

$$$$
ed0163c0-031a-4561-bfa2-561b081dc6d5
     RDKit          3D

 16 17  0  0  0  0  0  0  0  0999 V2000
   -5.1731   28.4036    6.6571 C   0  0  0  0  0  0  0  0  0  0  0  0
   -4.6869   28.1137    5.2375 C   0  0  0  0  0  0  0  0  0  0  0  0
   -3.5775   29.0255    4.9019 N   0  0  0  0  0  0  0  0  0  0  0  0
   -2.9707   29.1242    3.6646 C   0  0  0  0  0  0  0  0  0  0  0  0
   -1.9973   30.1182    3.4129 C   0  0  0  0  0  0  0  0  0  0  0  0
   -1.4546   30.2388    2.1863 N   0  0  0  0  0  4  0  0  0  0  0  0
   -1.8182   29.4378    1.1694 C   0  0  0  0  0  0  0  0  0  0  0  0
   -2.7876   28.4639    1.3959 C   0  0  0  0  0  0  0  0  0  0  0  0
   -3.3315   28.3504    2.6212 N   0  0  0  0  0  4  0  0  0  0  0  0
   -4.2670   26.6651    5.0796 C   0  0  0  0  0  0  0  0  0  0  0  0
   -3.0944   26.1608    5.6674 C   0  0  0  0  0  0  0  0  0  0  0  0
   -2.7224   24.8262    5.4847 C   0  0  0  0  0  0  0  0  0  0  0  0
   -3.5157   23.9752    4.7167 C   0  0  0  0  0  0  0  0  0  0  0  0
   -4.6907   24.4561    4.1502 C   0  0  0  0  0  0  0  0  0  0  0  0
   -5.6692   23.4238    3.1884 Cl  0  0  0  0  0  0  0  0  0  0  0  0
   -5.0740   25.7864    4.3352 C   0  0  0  0  0  0  0  0  0  0  0  0
  1  2  1  0
  2  3  1  0
  3  4  1  0
  4  5  2  0
  5  6  1  0
  6  7  2  0
  7  8  1  0
  8  9  2  0
  2 10  1  0
 10 11  2  0
 11 12  1  0
 12 13  2  0
 13 14  1  0
 14 15  1  0
 14 16  2  0
  9  4  1  0
 16 10  1  0
M  CHG  2   6   1   9   1
M  END
>  <Energy>  (907) 
139.48004901890437

>  <Energy_Delta>  (907) 
1.4392688303900343

>  <std_smi>  (907) 
CC(Nc1cnccn1)c1cccc(Cl)c1

>  <enum_smi>  (907) 
CC(Nc1c[nH+]cc[nH+]1)c1cccc(Cl)c1

>  <enum_code>  (907) 
M

>  <parent_uuid>  (907) 
6620cc01-fc2b-4cc4-81f0-045e40704b17

>  <o3da_score>  (907) 
86.355629165651251

>  <o3da_score_rel>  (907) 
0.34379430682547951

>  <o3da_align>  (907) 
0.47961678254418338

>  <RMSD>  (907) 
0.10524322853939531

>  <CONVERGED>  (907) 
0

>  <ENERGY>  (907) 
139.73326755720188

$$$$
ed0163c0-031a-4561-bfa2-561b081dc6d5
     RDKit          3D

 16 17  0  0  0  0  0  0  0  0999 V2000
   -2.5021   27.9550    5.8924 C   0  0  0  0  0  0  0  0  0  0  0  0
   -3.4209   28.8531    5.0650 C   0  0  0  0  0  0  0  0  0  0  0  0
   -4.6539   28.1177    4.7277 N   0  0  0  0  0  0  0  0  0  0  0  0
   -5.7542   28.6539    4.0870 C   0  0  0  0  0  0  0  0  0  0  0  0
   -6.9357   27.8956    3.9203 C   0  0  0  0  0  0  0  0  0  0  0  0
   -8.0196   28.4491    3.3438 N   0  0  0  0  0  4  0  0  0  0  0  0
   -8.0222   29.7252    2.9201 C   0  0  0  0  0  0  0  0  0  0  0  0
   -6.8718   30.4914    3.0913 C   0  0  0  0  0  0  0  0  0  0  0  0
   -5.7930   29.9363    3.6729 N   0  0  0  0  0  4  0  0  0  0  0  0
   -2.7270   29.3543    3.8132 C   0  0  0  0  0  0  0  0  0  0  0  0
   -2.4472   28.5080    2.7267 C   0  0  0  0  0  0  0  0  0  0  0  0
   -1.8266   29.0049    1.5774 C   0  0  0  0  0  0  0  0  0  0  0  0
   -1.4733   30.3510    1.4966 C   0  0  0  0  0  0  0  0  0  0  0  0
   -1.7229   31.1929    2.5745 C   0  0  0  0  0  0  0  0  0  0  0  0
   -1.3081   32.8565    2.4828 Cl  0  0  0  0  0  0  0  0  0  0  0  0
   -2.3349   30.7022    3.7301 C   0  0  0  0  0  0  0  0  0  0  0  0
  1  2  1  0
  2  3  1  0
  3  4  1  0
  4  5  2  0
  5  6  1  0
  6  7  2  0
  7  8  1  0
  8  9  2  0
  2 10  1  0
 10 11  2  0
 11 12  1  0
 12 13  2  0
 13 14  1  0
 14 15  1  0
 14 16  2  0
  9  4  1  0
 16 10  1  0
M  CHG  2   6   1   9   1
M  END
>  <Energy>  (908) 
139.73326775328903

>  <Energy_Delta>  (908) 
1.6924875647746944

>  <std_smi>  (908) 
CC(Nc1cnccn1)c1cccc(Cl)c1

>  <enum_smi>  (908) 
CC(Nc1c[nH+]cc[nH+]1)c1cccc(Cl)c1

>  <enum_code>  (908) 
M

>  <parent_uuid>  (908) 
6620cc01-fc2b-4cc4-81f0-045e40704b17

>  <o3da_score>  (908) 
71.310060667375566

>  <o3da_score_rel>  (908) 
0.28389571257474827

>  <o3da_align>  (908) 
0.36537521078469209

>  <RMSD>  (908) 
7.029103760353401e-05

>  <CONVERGED>  (908) 
0

>  <ENERGY>  (908) 
139.73326755684641

$$$$
ed0163c0-031a-4561-bfa2-561b081dc6d5
     RDKit          3D

 16 17  0  0  0  0  0  0  0  0999 V2000
   -6.1540   28.5691    4.4980 C   0  0  0  0  0  0  0  0  0  0  0  0
   -4.8677   28.1095    5.1906 C   0  0  0  0  0  0  0  0  0  0  0  0
   -3.8236   29.1423    4.9945 N   0  0  0  0  0  0  0  0  0  0  0  0
   -3.0790   29.3814    3.8561 C   0  0  0  0  0  0  0  0  0  0  0  0
   -2.0849   30.3881    3.8424 C   0  0  0  0  0  0  0  0  0  0  0  0
   -1.2946   30.5466    2.7637 N   0  0  0  0  0  4  0  0  0  0  0  0
   -1.4063   29.7560    1.6822 C   0  0  0  0  0  0  0  0  0  0  0  0
   -2.3645   28.7459    1.6863 C   0  0  0  0  0  0  0  0  0  0  0  0
   -3.1544   28.5935    2.7644 N   0  0  0  0  0  4  0  0  0  0  0  0
   -4.3488   26.7292    4.8179 C   0  0  0  0  0  0  0  0  0  0  0  0
   -5.0570   25.8422    3.9896 C   0  0  0  0  0  0  0  0  0  0  0  0
   -4.5224   24.5938    3.6537 C   0  0  0  0  0  0  0  0  0  0  0  0
   -3.2765   24.2058    4.1432 C   0  0  0  0  0  0  0  0  0  0  0  0
   -2.5770   25.0582    4.9881 C   0  0  0  0  0  0  0  0  0  0  0  0
   -1.0308   24.6073    5.5833 Cl  0  0  0  0  0  0  0  0  0  0  0  0
   -3.1103   26.3004    5.3357 C   0  0  0  0  0  0  0  0  0  0  0  0
  1  2  1  0
  2  3  1  0
  3  4  1  0
  4  5  2  0
  5  6  1  0
  6  7  2  0
  7  8  1  0
  8  9  2  0
  2 10  1  0
 10 11  2  0
 11 12  1  0
 12 13  2  0
 13 14  1  0
 14 15  1  0
 14 16  2  0
  9  4  1  0
 16 10  1  0
M  CHG  2   6   1   9   1
M  END
>  <Energy>  (909) 
140.77241527729029

>  <Energy_Delta>  (909) 
2.7316350887759597

>  <std_smi>  (909) 
CC(Nc1cnccn1)c1cccc(Cl)c1

>  <enum_smi>  (909) 
CC(Nc1c[nH+]cc[nH+]1)c1cccc(Cl)c1

>  <enum_code>  (909) 
M

>  <parent_uuid>  (909) 
6620cc01-fc2b-4cc4-81f0-045e40704b17

>  <o3da_score>  (909) 
99.531233148333826

>  <o3da_score_rel>  (909) 
0.39624830064149719

>  <o3da_align>  (909) 
0.50271994133097464

>  <RMSD>  (909) 
0.094512786972311205

>  <CONVERGED>  (909) 
0

>  <ENERGY>  (909) 
140.02116679769622

$$$$
ed0163c0-031a-4561-bfa2-561b081dc6d5
     RDKit          3D

 16 17  0  0  0  0  0  0  0  0999 V2000
   -2.4945   28.3864    6.2024 C   0  0  0  0  0  0  0  0  0  0  0  0
   -3.4831   28.9899    5.2044 C   0  0  0  0  0  0  0  0  0  0  0  0
   -2.7425   29.5160    4.0458 N   0  0  0  0  0  0  0  0  0  0  0  0
   -2.3246   30.8025    3.8793 C   0  0  0  0  0  0  0  0  0  0  0  0
   -2.3919   31.8322    4.8413 C   0  0  0  0  0  0  0  0  0  0  0  0
   -1.9399   33.0666    4.5428 N   0  0  0  0  0  4  0  0  0  0  0  0
   -1.4160   33.3599    3.3397 C   0  0  0  0  0  0  0  0  0  0  0  0
   -1.3393   32.3547    2.3794 C   0  0  0  0  0  0  0  0  0  0  0  0
   -1.7908   31.1250    2.6827 N   0  0  0  0  0  4  0  0  0  0  0  0
   -4.5279   28.0303    4.6656 C   0  0  0  0  0  0  0  0  0  0  0  0
   -4.3158   26.6461    4.5605 C   0  0  0  0  0  0  0  0  0  0  0  0
   -5.2983   25.8102    4.0190 C   0  0  0  0  0  0  0  0  0  0  0  0
   -6.5028   26.3424    3.5627 C   0  0  0  0  0  0  0  0  0  0  0  0
   -6.7228   27.7113    3.6517 C   0  0  0  0  0  0  0  0  0  0  0  0
   -8.1930   28.3900    3.0756 Cl  0  0  0  0  0  0  0  0  0  0  0  0
   -5.7487   28.5509    4.1962 C   0  0  0  0  0  0  0  0  0  0  0  0
  1  2  1  0
  2  3  1  0
  3  4  1  0
  4  5  2  0
  5  6  1  0
  6  7  2  0
  7  8  1  0
  8  9  2  0
  2 10  1  0
 10 11  2  0
 11 12  1  0
 12 13  2  0
 13 14  1  0
 14 15  1  0
 14 16  2  0
  9  4  1  0
 16 10  1  0
M  CHG  2   6   1   9   1
M  END
>  <Energy>  (910) 
141.3196161186992

>  <Energy_Delta>  (910) 
3.2788359301848686

>  <std_smi>  (910) 
CC(Nc1cnccn1)c1cccc(Cl)c1

>  <enum_smi>  (910) 
CC(Nc1c[nH+]cc[nH+]1)c1cccc(Cl)c1

>  <enum_code>  (910) 
M

>  <parent_uuid>  (910) 
6620cc01-fc2b-4cc4-81f0-045e40704b17

>  <o3da_score>  (910) 
72.004620825910933

>  <o3da_score_rel>  (910) 
0.28666085748260611

>  <o3da_align>  (910) 
0.38150021813525514

>  <RMSD>  (910) 
6.4874391962115721e-05

>  <CONVERGED>  (910) 
0

>  <ENERGY>  (910) 
141.31961608821621

$$$$
ed0163c0-031a-4561-bfa2-561b081dc6d5
     RDKit          3D

 16 17  0  0  0  0  0  0  0  0999 V2000
   -5.7351   28.5709    4.5861 C   0  0  0  0  0  0  0  0  0  0  0  0
   -4.3076   28.0247    4.5453 C   0  0  0  0  0  0  0  0  0  0  0  0
   -3.6793   28.4044    3.2692 N   0  0  0  0  0  0  0  0  0  0  0  0
   -2.8955   29.4990    3.0567 C   0  0  0  0  0  0  0  0  0  0  0  0
   -2.6594   30.5458    3.9725 C   0  0  0  0  0  0  0  0  0  0  0  0
   -1.8579   31.5746    3.6311 N   0  0  0  0  0  4  0  0  0  0  0  0
   -1.2637   31.6432    2.4268 C   0  0  0  0  0  0  0  0  0  0  0  0
   -1.4882   30.6198    1.5098 C   0  0  0  0  0  0  0  0  0  0  0  0
   -2.2892   29.5966    1.8552 N   0  0  0  0  0  4  0  0  0  0  0  0
   -4.1864   26.5171    4.6692 C   0  0  0  0  0  0  0  0  0  0  0  0
   -5.1960   25.6308    4.2605 C   0  0  0  0  0  0  0  0  0  0  0  0
   -5.0171   24.2468    4.3598 C   0  0  0  0  0  0  0  0  0  0  0  0
   -3.8246   23.7244    4.8570 C   0  0  0  0  0  0  0  0  0  0  0  0
   -2.8132   24.5892    5.2565 C   0  0  0  0  0  0  0  0  0  0  0  0
   -1.3272   23.9649    5.8529 Cl  0  0  0  0  0  0  0  0  0  0  0  0
   -2.9871   25.9719    5.1652 C   0  0  0  0  0  0  0  0  0  0  0  0
  1  2  1  0
  2  3  1  0
  3  4  1  0
  4  5  2  0
  5  6  1  0
  6  7  2  0
  7  8  1  0
  8  9  2  0
  2 10  1  0
 10 11  2  0
 11 12  1  0
 12 13  2  0
 13 14  1  0
 14 15  1  0
 14 16  2  0
  9  4  1  0
 16 10  1  0
M  CHG  2   6   1   9   1
M  END
>  <Energy>  (911) 
141.31961614482103

>  <Energy_Delta>  (911) 
3.2788359563066933

>  <std_smi>  (911) 
CC(Nc1cnccn1)c1cccc(Cl)c1

>  <enum_smi>  (911) 
CC(Nc1c[nH+]cc[nH+]1)c1cccc(Cl)c1

>  <enum_code>  (911) 
M

>  <parent_uuid>  (911) 
6620cc01-fc2b-4cc4-81f0-045e40704b17

>  <o3da_score>  (911) 
88.651011571291789

>  <o3da_score_rel>  (911) 
0.35293255769193815

>  <o3da_align>  (911) 
0.42016840220513924

>  <RMSD>  (911) 
6.6879705018183666e-05

>  <CONVERGED>  (911) 
0

>  <ENERGY>  (911) 
141.31961608852862

$$$$
ed0163c0-031a-4561-bfa2-561b081dc6d5
     RDKit          3D

 16 17  0  0  0  0  0  0  0  0999 V2000
   -3.5249   29.6814    6.3528 C   0  0  0  0  0  0  0  0  0  0  0  0
   -3.3661   28.7322    5.1615 C   0  0  0  0  0  0  0  0  0  0  0  0
   -4.6670   28.0792    4.8857 N   0  0  0  0  0  0  0  0  0  0  0  0
   -5.7779   28.6412    4.2870 C   0  0  0  0  0  0  0  0  0  0  0  0
   -6.9602   27.8854    4.1044 C   0  0  0  0  0  0  0  0  0  0  0  0
   -8.0073   28.4127    3.4417 N   0  0  0  0  0  4  0  0  0  0  0  0
   -7.9638   29.6505    2.9190 C   0  0  0  0  0  0  0  0  0  0  0  0
   -6.7993   30.3992    3.0659 C   0  0  0  0  0  0  0  0  0  0  0  0
   -5.7576   29.8696    3.7319 N   0  0  0  0  0  4  0  0  0  0  0  0
   -2.7702   29.3189    3.8921 C   0  0  0  0  0  0  0  0  0  0  0  0
   -2.5973   28.4870    2.7688 C   0  0  0  0  0  0  0  0  0  0  0  0
   -2.0707   28.9849    1.5743 C   0  0  0  0  0  0  0  0  0  0  0  0
   -1.7011   30.3241    1.4794 C   0  0  0  0  0  0  0  0  0  0  0  0
   -1.8406   31.1534    2.5862 C   0  0  0  0  0  0  0  0  0  0  0  0
   -1.4071   32.8118    2.4764 Cl  0  0  0  0  0  0  0  0  0  0  0  0
   -2.3591   30.6590    3.7874 C   0  0  0  0  0  0  0  0  0  0  0  0
  1  2  1  0
  2  3  1  0
  3  4  1  0
  4  5  2  0
  5  6  1  0
  6  7  2  0
  7  8  1  0
  8  9  2  0
  2 10  1  0
 10 11  2  0
 11 12  1  0
 12 13  2  0
 13 14  1  0
 14 15  1  0
 14 16  2  0
  9  4  1  0
 16 10  1  0
M  CHG  2   6   1   9   1
M  END
>  <Energy>  (912) 
141.53451488182151

>  <Energy_Delta>  (912) 
3.4937346933071751

>  <std_smi>  (912) 
CC(Nc1cnccn1)c1cccc(Cl)c1

>  <enum_smi>  (912) 
CC(Nc1c[nH+]cc[nH+]1)c1cccc(Cl)c1

>  <enum_code>  (912) 
M

>  <parent_uuid>  (912) 
6620cc01-fc2b-4cc4-81f0-045e40704b17

>  <o3da_score>  (912) 
70.812522687879934

>  <o3da_score_rel>  (912) 
0.28191494158815822

>  <o3da_align>  (912) 
0.39284130850195331

>  <RMSD>  (912) 
0.082670145753517874

>  <CONVERGED>  (912) 
0

>  <ENERGY>  (912) 
140.93793365589329

$$$$
ed0163c0-031a-4561-bfa2-561b081dc6d5
     RDKit          3D

 16 17  0  0  0  0  0  0  0  0999 V2000
   -2.5766   28.8141    6.1631 C   0  0  0  0  0  0  0  0  0  0  0  0
   -3.5657   29.2094    5.0652 C   0  0  0  0  0  0  0  0  0  0  0  0
   -2.8450   29.4847    3.8110 N   0  0  0  0  0  0  0  0  0  0  0  0
   -2.2630   30.6671    3.4623 C   0  0  0  0  0  0  0  0  0  0  0  0
   -2.2141   31.8365    4.2498 C   0  0  0  0  0  0  0  0  0  0  0  0
   -1.6032   32.9426    3.7803 N   0  0  0  0  0  4  0  0  0  0  0  0
   -1.0284   32.9753    2.5651 C   0  0  0  0  0  0  0  0  0  0  0  0
   -1.0688   31.8304    1.7739 C   0  0  0  0  0  0  0  0  0  0  0  0
   -1.6787   30.7297    2.2475 N   0  0  0  0  0  4  0  0  0  0  0  0
   -4.6013   28.1389    4.7745 C   0  0  0  0  0  0  0  0  0  0  0  0
   -5.9513   28.4971    4.6143 C   0  0  0  0  0  0  0  0  0  0  0  0
   -6.9184   27.5329    4.3157 C   0  0  0  0  0  0  0  0  0  0  0  0
   -6.5523   26.1972    4.1617 C   0  0  0  0  0  0  0  0  0  0  0  0
   -5.2197   25.8297    4.3094 C   0  0  0  0  0  0  0  0  0  0  0  0
   -4.7520   24.1889    4.1025 Cl  0  0  0  0  0  0  0  0  0  0  0  0
   -4.2484   26.7872    4.6124 C   0  0  0  0  0  0  0  0  0  0  0  0
  1  2  1  0
  2  3  1  0
  3  4  1  0
  4  5  2  0
  5  6  1  0
  6  7  2  0
  7  8  1  0
  8  9  2  0
  2 10  1  0
 10 11  2  0
 11 12  1  0
 12 13  2  0
 13 14  1  0
 14 15  1  0
 14 16  2  0
  9  4  1  0
 16 10  1  0
M  CHG  2   6   1   9   1
M  END
>  <Energy>  (913) 
141.87230520854237

>  <Energy_Delta>  (913) 
3.8315250200280389

>  <std_smi>  (913) 
CC(Nc1cnccn1)c1cccc(Cl)c1

>  <enum_smi>  (913) 
CC(Nc1c[nH+]cc[nH+]1)c1cccc(Cl)c1

>  <enum_code>  (913) 
M

>  <parent_uuid>  (913) 
6620cc01-fc2b-4cc4-81f0-045e40704b17

>  <o3da_score>  (913) 
77.075888066507005

>  <o3da_score_rel>  (913) 
0.30685030920164902

>  <o3da_align>  (913) 
0.38698890131122649

>  <RMSD>  (913) 
6.6196264797509292e-05

>  <CONVERGED>  (913) 
0

>  <ENERGY>  (913) 
141.87230516207208

$$$$
ed0163c0-031a-4561-bfa2-561b081dc6d5
     RDKit          3D

 16 17  0  0  0  0  0  0  0  0999 V2000
   -5.4921   28.5845    4.7329 C   0  0  0  0  0  0  0  0  0  0  0  0
   -4.0846   27.9899    4.6610 C   0  0  0  0  0  0  0  0  0  0  0  0
   -3.4627   28.3183    3.3673 N   0  0  0  0  0  0  0  0  0  0  0  0
   -2.7970   29.4690    3.0656 C   0  0  0  0  0  0  0  0  0  0  0  0
   -2.6073   30.5721    3.9241 C   0  0  0  0  0  0  0  0  0  0  0  0
   -1.9251   31.6529    3.4955 N   0  0  0  0  0  4  0  0  0  0  0  0
   -1.4066   31.7206    2.2567 C   0  0  0  0  0  0  0  0  0  0  0  0
   -1.5830   30.6400    1.3967 C   0  0  0  0  0  0  0  0  0  0  0  0
   -2.2650   29.5649    1.8291 N   0  0  0  0  0  4  0  0  0  0  0  0
   -4.0608   26.4800    4.8120 C   0  0  0  0  0  0  0  0  0  0  0  0
   -3.0997   25.8753    5.6409 C   0  0  0  0  0  0  0  0  0  0  0  0
   -3.0387   24.4848    5.7717 C   0  0  0  0  0  0  0  0  0  0  0  0
   -3.9289   23.6749    5.0693 C   0  0  0  0  0  0  0  0  0  0  0  0
   -4.8794   24.2590    4.2397 C   0  0  0  0  0  0  0  0  0  0  0  0
   -5.9703   23.2706    3.3525 Cl  0  0  0  0  0  0  0  0  0  0  0  0
   -4.9494   25.6481    4.1076 C   0  0  0  0  0  0  0  0  0  0  0  0
  1  2  1  0
  2  3  1  0
  3  4  1  0
  4  5  2  0
  5  6  1  0
  6  7  2  0
  7  8  1  0
  8  9  2  0
  2 10  1  0
 10 11  2  0
 11 12  1  0
 12 13  2  0
 13 14  1  0
 14 15  1  0
 14 16  2  0
  9  4  1  0
 16 10  1  0
M  CHG  2   6   1   9   1
M  END
>  <Energy>  (914) 
141.8723052833422

>  <Energy_Delta>  (914) 
3.8315250948278674

>  <std_smi>  (914) 
CC(Nc1cnccn1)c1cccc(Cl)c1

>  <enum_smi>  (914) 
CC(Nc1c[nH+]cc[nH+]1)c1cccc(Cl)c1

>  <enum_code>  (914) 
M

>  <parent_uuid>  (914) 
6620cc01-fc2b-4cc4-81f0-045e40704b17

>  <o3da_score>  (914) 
85.092202691619121

>  <o3da_score_rel>  (914) 
0.33876442246169791

>  <o3da_align>  (914) 
0.51250127722960293

>  <RMSD>  (914) 
8.1070731231203688e-05

>  <CONVERGED>  (914) 
0

>  <ENERGY>  (914) 
141.87230516237227

$$$$
ed0163c0-031a-4561-bfa2-561b081dc6d5
     RDKit          3D

 16 17  0  0  0  0  0  0  0  0999 V2000
   -5.4312   29.0136    4.8766 C   0  0  0  0  0  0  0  0  0  0  0  0
   -4.0291   28.4018    4.9016 C   0  0  0  0  0  0  0  0  0  0  0  0
   -3.2399   28.9219    3.7758 N   0  0  0  0  0  0  0  0  0  0  0  0
   -2.5972   30.1342    3.7072 C   0  0  0  0  0  0  0  0  0  0  0  0
   -1.7904   30.4669    2.5948 C   0  0  0  0  0  0  0  0  0  0  0  0
   -1.1049   31.6255    2.5778 N   0  0  0  0  0  4  0  0  0  0  0  0
   -1.1500   32.4889    3.6072 C   0  0  0  0  0  0  0  0  0  0  0  0
   -1.9234   32.1665    4.7206 C   0  0  0  0  0  0  0  0  0  0  0  0
   -2.6066   31.0064    4.7353 N   0  0  0  0  0  4  0  0  0  0  0  0
   -3.9785   26.8884    4.8132 C   0  0  0  0  0  0  0  0  0  0  0  0
   -5.0232   26.1094    4.2903 C   0  0  0  0  0  0  0  0  0  0  0  0
   -4.9072   24.7173    4.2077 C   0  0  0  0  0  0  0  0  0  0  0  0
   -3.7441   24.0801    4.6356 C   0  0  0  0  0  0  0  0  0  0  0  0
   -2.6983   24.8379    5.1473 C   0  0  0  0  0  0  0  0  0  0  0  0
   -1.2488   24.0728    5.6645 Cl  0  0  0  0  0  0  0  0  0  0  0  0
   -2.8095   26.2270    5.2371 C   0  0  0  0  0  0  0  0  0  0  0  0
  1  2  1  0
  2  3  1  0
  3  4  1  0
  4  5  2  0
  5  6  1  0
  6  7  2  0
  7  8  1  0
  8  9  2  0
  2 10  1  0
 10 11  2  0
 11 12  1  0
 12 13  2  0
 13 14  1  0
 14 15  1  0
 14 16  2  0
  9  4  1  0
 16 10  1  0
M  CHG  2   6   1   9   1
M  END
>  <Energy>  (915) 
144.69079950585257

>  <Energy_Delta>  (915) 
6.6500193173382343

>  <std_smi>  (915) 
CC(Nc1cnccn1)c1cccc(Cl)c1

>  <enum_smi>  (915) 
CC(Nc1c[nH+]cc[nH+]1)c1cccc(Cl)c1

>  <enum_code>  (915) 
M

>  <parent_uuid>  (915) 
6620cc01-fc2b-4cc4-81f0-045e40704b17

>  <o3da_score>  (915) 
72.069996955051934

>  <o3da_score_rel>  (915) 
0.28692112935159858

>  <o3da_align>  (915) 
0.48973699300296686

>  <RMSD>  (915) 
6.6057007239437261e-05

>  <CONVERGED>  (915) 
0

>  <ENERGY>  (915) 
144.69079941776619

$$$$
ed0163c0-031a-4561-bfa2-561b081dc6d5
     RDKit          3D

 16 17  0  0  0  0  0  0  0  0999 V2000
   -2.4282   28.4940    6.1310 C   0  0  0  0  0  0  0  0  0  0  0  0
   -3.4954   29.0013    5.1593 C   0  0  0  0  0  0  0  0  0  0  0  0
   -2.8523   29.5419    3.9530 N   0  0  0  0  0  0  0  0  0  0  0  0
   -2.2783   30.7816    3.8075 C   0  0  0  0  0  0  0  0  0  0  0  0
   -1.7787   31.2084    2.5556 C   0  0  0  0  0  0  0  0  0  0  0  0
   -1.2902   32.4546    2.4105 N   0  0  0  0  0  4  0  0  0  0  0  0
   -1.2726   33.3302    3.4305 C   0  0  0  0  0  0  0  0  0  0  0  0
   -1.7809   32.9328    4.6655 C   0  0  0  0  0  0  0  0  0  0  0  0
   -2.2701   31.6864    4.8070 N   0  0  0  0  0  4  0  0  0  0  0  0
   -4.4990   27.9627    4.6956 C   0  0  0  0  0  0  0  0  0  0  0  0
   -4.2556   26.5804    4.7371 C   0  0  0  0  0  0  0  0  0  0  0  0
   -5.2095   25.6703    4.2679 C   0  0  0  0  0  0  0  0  0  0  0  0
   -6.4171   26.1237    3.7406 C   0  0  0  0  0  0  0  0  0  0  0  0
   -6.6688   27.4887    3.6847 C   0  0  0  0  0  0  0  0  0  0  0  0
   -8.1447   28.0691    3.0223 Cl  0  0  0  0  0  0  0  0  0  0  0  0
   -5.7233   28.4021    4.1557 C   0  0  0  0  0  0  0  0  0  0  0  0
  1  2  1  0
  2  3  1  0
  3  4  1  0
  4  5  2  0
  5  6  1  0
  6  7  2  0
  7  8  1  0
  8  9  2  0
  2 10  1  0
 10 11  2  0
 11 12  1  0
 12 13  2  0
 13 14  1  0
 14 15  1  0
 14 16  2  0
  9  4  1  0
 16 10  1  0
M  CHG  2   6   1   9   1
M  END
>  <Energy>  (916) 
144.69080011993873

>  <Energy_Delta>  (916) 
6.6500199314243957

>  <std_smi>  (916) 
CC(Nc1cnccn1)c1cccc(Cl)c1

>  <enum_smi>  (916) 
CC(Nc1c[nH+]cc[nH+]1)c1cccc(Cl)c1

>  <enum_code>  (916) 
M

>  <parent_uuid>  (916) 
6620cc01-fc2b-4cc4-81f0-045e40704b17

>  <o3da_score>  (916) 
70.319829242928222

>  <o3da_score_rel>  (916) 
0.27995345739747846

>  <o3da_align>  (916) 
0.30914961226280069

>  <RMSD>  (916) 
0.00013513391758810967

>  <CONVERGED>  (916) 
0

>  <ENERGY>  (916) 
144.69079941703922

$$$$
ed0163c0-031a-4561-bfa2-561b081dc6d5
     RDKit          3D

 16 17  0  0  0  0  0  0  0  0999 V2000
   -2.7878   29.2677    3.8314 C   0  0  0  0  0  0  0  0  0  0  0  0
   -3.7112   29.0283    5.0274 C   0  0  0  0  0  0  0  0  0  0  0  0
   -4.6213   27.9002    4.7608 N   0  0  0  0  0  0  0  0  0  0  0  0
   -4.2868   26.5629    4.7998 C   0  0  0  0  0  0  0  0  0  0  0  0
   -5.2368   25.5732    4.4550 C   0  0  0  0  0  0  0  0  0  0  0  0
   -4.8821   24.2748    4.4272 N   0  0  0  0  0  4  0  0  0  0  0  0
   -3.6290   23.8781    4.7092 C   0  0  0  0  0  0  0  0  0  0  0  0
   -2.6762   24.8420    5.0330 C   0  0  0  0  0  0  0  0  0  0  0  0
   -3.0333   26.1402    5.0594 N   0  0  0  0  0  4  0  0  0  0  0  0
   -4.5491   30.2542    5.3372 C   0  0  0  0  0  0  0  0  0  0  0  0
   -4.4651   30.8701    6.5967 C   0  0  0  0  0  0  0  0  0  0  0  0
   -5.2465   31.9899    6.8968 C   0  0  0  0  0  0  0  0  0  0  0  0
   -6.1257   32.5081    5.9472 C   0  0  0  0  0  0  0  0  0  0  0  0
   -6.2189   31.9068    4.6970 C   0  0  0  0  0  0  0  0  0  0  0  0
   -7.3085   32.5267    3.5216 Cl  0  0  0  0  0  0  0  0  0  0  0  0
   -5.4391   30.7905    4.3886 C   0  0  0  0  0  0  0  0  0  0  0  0
  1  2  1  0
  2  3  1  0
  3  4  1  0
  4  5  2  0
  5  6  1  0
  6  7  2  0
  7  8  1  0
  8  9  2  0
  2 10  1  0
 10 11  2  0
 11 12  1  0
 12 13  2  0
 13 14  1  0
 14 15  1  0
 14 16  2  0
  9  4  1  0
 16 10  1  0
M  CHG  2   6   1   9   1
M  END
>  <Energy>  (917) 
144.85152087787802

>  <Energy_Delta>  (917) 
6.8107406893636835

>  <std_smi>  (917) 
CC(Nc1cnccn1)c1cccc(Cl)c1

>  <enum_smi>  (917) 
CC(Nc1c[nH+]cc[nH+]1)c1cccc(Cl)c1

>  <enum_code>  (917) 
M

>  <parent_uuid>  (917) 
6620cc01-fc2b-4cc4-81f0-045e40704b17

>  <o3da_score>  (917) 
70.330873787723576

>  <o3da_score_rel>  (917) 
0.27999742733503558

>  <o3da_align>  (917) 
0.23347382484469517

>  <RMSD>  (917) 
5.5059724070182307e-05

>  <CONVERGED>  (917) 
0

>  <ENERGY>  (917) 
144.85152083608142

$$$$
ed0163c0-031a-4561-bfa2-561b081dc6d5
     RDKit          3D

 16 17  0  0  0  0  0  0  0  0999 V2000
   -4.1798   28.4952    6.5969 C   0  0  0  0  0  0  0  0  0  0  0  0
   -4.2439   28.0800    5.1256 C   0  0  0  0  0  0  0  0  0  0  0  0
   -3.1886   28.7534    4.3554 N   0  0  0  0  0  0  0  0  0  0  0  0
   -3.1920   30.0568    3.9181 C   0  0  0  0  0  0  0  0  0  0  0  0
   -2.1349   30.5590    3.1244 C   0  0  0  0  0  0  0  0  0  0  0  0
   -2.1873   31.8152    2.6431 N   0  0  0  0  0  4  0  0  0  0  0  0
   -3.2365   32.6209    2.8823 C   0  0  0  0  0  0  0  0  0  0  0  0
   -4.2975   32.1336    3.6430 C   0  0  0  0  0  0  0  0  0  0  0  0
   -4.2429   30.8763    4.1217 N   0  0  0  0  0  4  0  0  0  0  0  0
   -4.0808   26.5880    4.9107 C   0  0  0  0  0  0  0  0  0  0  0  0
   -4.9067   25.9217    3.9879 C   0  0  0  0  0  0  0  0  0  0  0  0
   -4.7593   24.5518    3.7509 C   0  0  0  0  0  0  0  0  0  0  0  0
   -3.7781   23.8260    4.4228 C   0  0  0  0  0  0  0  0  0  0  0  0
   -2.9477   24.4733    5.3305 C   0  0  0  0  0  0  0  0  0  0  0  0
   -1.7213   23.5933    6.1529 Cl  0  0  0  0  0  0  0  0  0  0  0  0
   -3.0920   25.8414    5.5758 C   0  0  0  0  0  0  0  0  0  0  0  0
  1  2  1  0
  2  3  1  0
  3  4  1  0
  4  5  2  0
  5  6  1  0
  6  7  2  0
  7  8  1  0
  8  9  2  0
  2 10  1  0
 10 11  2  0
 11 12  1  0
 12 13  2  0
 13 14  1  0
 14 15  1  0
 14 16  2  0
  9  4  1  0
 16 10  1  0
M  CHG  2   6   1   9   1
M  END
>  <Energy>  (918) 
144.85152104997098

>  <Energy_Delta>  (918) 
6.8107408614566509

>  <std_smi>  (918) 
CC(Nc1cnccn1)c1cccc(Cl)c1

>  <enum_smi>  (918) 
CC(Nc1c[nH+]cc[nH+]1)c1cccc(Cl)c1

>  <enum_code>  (918) 
M

>  <parent_uuid>  (918) 
6620cc01-fc2b-4cc4-81f0-045e40704b17

>  <o3da_score>  (918) 
74.729943485569393

>  <o3da_score_rel>  (918) 
0.29751076296885709

>  <o3da_align>  (918) 
0.47564384452817327

>  <RMSD>  (918) 
0.22710044858762066

>  <CONVERGED>  (918) 
0

>  <ENERGY>  (918) 
145.22581919230794

$$$$
ed0163c0-031a-4561-bfa2-561b081dc6d5
     RDKit          3D

 16 17  0  0  0  0  0  0  0  0999 V2000
   -5.2649   28.3087    6.5571 C   0  0  0  0  0  0  0  0  0  0  0  0
   -4.7061   28.1873    5.1392 C   0  0  0  0  0  0  0  0  0  0  0  0
   -3.6124   29.1640    4.9526 N   0  0  0  0  0  0  0  0  0  0  0  0
   -2.9465   29.3533    3.7698 C   0  0  0  0  0  0  0  0  0  0  0  0
   -3.3707   28.9025    2.5008 C   0  0  0  0  0  0  0  0  0  0  0  0
   -2.6172   29.1447    1.4104 N   0  0  0  0  0  4  0  0  0  0  0  0
   -1.4592   29.8230    1.4841 C   0  0  0  0  0  0  0  0  0  0  0  0
   -1.0343   30.2904    2.7249 C   0  0  0  0  0  0  0  0  0  0  0  0
   -1.7884   30.0445    3.8110 N   0  0  0  0  0  4  0  0  0  0  0  0
   -4.2182   26.7766    4.8659 C   0  0  0  0  0  0  0  0  0  0  0  0
   -5.0005   25.9031    4.0917 C   0  0  0  0  0  0  0  0  0  0  0  0
   -4.5598   24.6062    3.8147 C   0  0  0  0  0  0  0  0  0  0  0  0
   -3.3336   24.1619    4.3073 C   0  0  0  0  0  0  0  0  0  0  0  0
   -2.5609   25.0101    5.0930 C   0  0  0  0  0  0  0  0  0  0  0  0
   -1.0394   24.4844    5.6928 Cl  0  0  0  0  0  0  0  0  0  0  0  0
   -3.0003   26.3028    5.3840 C   0  0  0  0  0  0  0  0  0  0  0  0
  1  2  1  0
  2  3  1  0
  3  4  1  0
  4  5  2  0
  5  6  1  0
  6  7  2  0
  7  8  1  0
  8  9  2  0
  2 10  1  0
 10 11  2  0
 11 12  1  0
 12 13  2  0
 13 14  1  0
 14 15  1  0
 14 16  2  0
  9  4  1  0
 16 10  1  0
M  CHG  2   6   1   9   1
M  END
>  <Energy>  (919) 
250.34519266356878

>  <Energy_Delta>  (919) 
112.30441247505445

>  <std_smi>  (919) 
CC(Nc1cnccn1)c1cccc(Cl)c1

>  <enum_smi>  (919) 
CC(Nc1c[nH+]cc[nH+]1)c1cccc(Cl)c1

>  <enum_code>  (919) 
M

>  <parent_uuid>  (919) 
6620cc01-fc2b-4cc4-81f0-045e40704b17

>  <o3da_score>  (919) 
94.595274657024618

>  <o3da_score_rel>  (919) 
0.37659753271316893

>  <o3da_align>  (919) 
0.36421680462304468

>  <RMSD>  (919) 
0.8241168420140218

>  <CONVERGED>  (919) 
0

>  <ENERGY>  (919) 
138.04077967489431

$$$$
8775d7fa-f90a-4a07-aee3-d51c1f719189
     RDKit          3D

 16 17  0  0  0  0  0  0  0  0999 V2000
   -3.9239   28.5986    7.0998 C   0  0  0  0  0  0  0  0  0  0  0  0
   -2.9717   28.5190    5.9035 C   0  0  2  0  0  0  0  0  0  0  0  0
   -3.7009   29.0393    4.7076 N   0  0  0  0  0  4  0  0  0  0  0  0
   -2.8160   29.4252    3.6400 C   0  0  0  0  0  0  0  0  0  0  0  0
   -2.3870   28.5539    2.6457 C   0  0  0  0  0  0  0  0  0  0  0  0
   -1.5873   28.9646    1.6359 N   0  0  0  0  0  0  0  0  0  0  0  0
   -1.2427   30.2738    1.6491 C   0  0  0  0  0  0  0  0  0  0  0  0
   -1.6864   31.1348    2.6399 C   0  0  0  0  0  0  0  0  0  0  0  0
   -2.4895   30.7262    3.6585 N   0  0  0  0  0  0  0  0  0  0  0  0
   -2.4389   27.1171    5.6848 C   0  0  0  0  0  0  0  0  0  0  0  0
   -1.0526   26.9058    5.5861 C   0  0  0  0  0  0  0  0  0  0  0  0
   -0.5397   25.6285    5.3463 C   0  0  0  0  0  0  0  0  0  0  0  0
   -1.4014   24.5432    5.2001 C   0  0  0  0  0  0  0  0  0  0  0  0
   -2.7745   24.7380    5.2983 C   0  0  0  0  0  0  0  0  0  0  0  0
   -3.8473   23.4087    5.1107 Cl  0  0  0  0  0  0  0  0  0  0  0  0
   -3.2962   26.0120    5.5378 C   0  0  0  0  0  0  0  0  0  0  0  0
  2  1  1  1
  2  3  1  0
  3  4  1  0
  4  5  2  0
  5  6  1  0
  6  7  2  0
  7  8  1  0
  8  9  2  0
  2 10  1  0
 10 11  2  0
 11 12  1  0
 12 13  2  0
 13 14  1  0
 14 15  1  0
 14 16  2  0
  9  4  1  0
 16 10  1  0
M  CHG  1   3   1
M  END
>  <Energy>  (920) 
30.023163108863731

>  <Energy_Delta>  (920) 
0

>  <std_smi>  (920) 
CC(Nc1cnccn1)c1cccc(Cl)c1

>  <enum_smi>  (920) 
C[C@H]([NH2+]c1cnccn1)c1cccc(Cl)c1

>  <enum_code>  (920) 
M

>  <parent_uuid>  (920) 
6620cc01-fc2b-4cc4-81f0-045e40704b17

>  <o3da_score>  (920) 
76.117374194347661

>  <o3da_score_rel>  (920) 
0.30303432620846732

>  <o3da_align>  (920) 
0.42219131991818692

>  <RMSD>  (920) 
6.7198520774661312e-05

>  <CONVERGED>  (920) 
0

>  <ENERGY>  (920) 
30.023163105382302

$$$$
8775d7fa-f90a-4a07-aee3-d51c1f719189
     RDKit          3D

 16 17  0  0  0  0  0  0  0  0999 V2000
   -5.9419   28.3691    5.2773 C   0  0  0  0  0  0  0  0  0  0  0  0
   -4.6172   28.0190    4.5941 C   0  0  2  0  0  0  0  0  0  0  0  0
   -4.6773   28.5400    3.1951 N   0  0  0  0  0  4  0  0  0  0  0  0
   -3.3774   28.6519    2.5867 C   0  0  0  0  0  0  0  0  0  0  0  0
   -2.7838   27.6300    1.8550 C   0  0  0  0  0  0  0  0  0  0  0  0
   -1.5790   27.7861    1.2623 N   0  0  0  0  0  0  0  0  0  0  0  0
   -0.9944   28.9969    1.4204 C   0  0  0  0  0  0  0  0  0  0  0  0
   -1.6016   30.0113    2.1432 C   0  0  0  0  0  0  0  0  0  0  0  0
   -2.8146   29.8599    2.7394 N   0  0  0  0  0  0  0  0  0  0  0  0
   -4.3189   26.5335    4.6399 C   0  0  0  0  0  0  0  0  0  0  0  0
   -5.2397   25.5722    4.1871 C   0  0  0  0  0  0  0  0  0  0  0  0
   -4.9175   24.2123    4.2083 C   0  0  0  0  0  0  0  0  0  0  0  0
   -3.6738   23.7924    4.6771 C   0  0  0  0  0  0  0  0  0  0  0  0
   -2.7549   24.7331    5.1287 C   0  0  0  0  0  0  0  0  0  0  0  0
   -1.2174   24.2252    5.7034 Cl  0  0  0  0  0  0  0  0  0  0  0  0
   -3.0691   26.0935    5.1124 C   0  0  0  0  0  0  0  0  0  0  0  0
  2  1  1  6
  2  3  1  0
  3  4  1  0
  4  5  2  0
  5  6  1  0
  6  7  2  0
  7  8  1  0
  8  9  2  0
  2 10  1  0
 10 11  2  0
 11 12  1  0
 12 13  2  0
 13 14  1  0
 14 15  1  0
 14 16  2  0
  9  4  1  0
 16 10  1  0
M  CHG  1   3   1
M  END
>  <Energy>  (921) 
30.23393174556772

>  <Energy_Delta>  (921) 
0.21076863670398893

>  <std_smi>  (921) 
CC(Nc1cnccn1)c1cccc(Cl)c1

>  <enum_smi>  (921) 
C[C@H]([NH2+]c1cnccn1)c1cccc(Cl)c1

>  <enum_code>  (921) 
M

>  <parent_uuid>  (921) 
6620cc01-fc2b-4cc4-81f0-045e40704b17

>  <o3da_score>  (921) 
79.396111088412766

>  <o3da_score_rel>  (921) 
0.31608745417069867

>  <o3da_align>  (921) 
0.54544154520899391

>  <RMSD>  (921) 
6.7691565164130555e-05

>  <CONVERGED>  (921) 
0

>  <ENERGY>  (921) 
30.233931742234397

$$$$
8775d7fa-f90a-4a07-aee3-d51c1f719189
     RDKit          3D

 16 17  0  0  0  0  0  0  0  0999 V2000
   -5.5965   28.5406    5.1093 C   0  0  0  0  0  0  0  0  0  0  0  0
   -4.1922   28.0428    4.7569 C   0  0  2  0  0  0  0  0  0  0  0  0
   -3.7978   28.4957    3.3928 N   0  0  0  0  0  4  0  0  0  0  0  0
   -3.5560   29.9068    3.2861 C   0  0  0  0  0  0  0  0  0  0  0  0
   -2.3858   30.5134    3.7264 C   0  0  0  0  0  0  0  0  0  0  0  0
   -2.1757   31.8408    3.5875 N   0  0  0  0  0  0  0  0  0  0  0  0
   -3.1676   32.5354    2.9808 C   0  0  0  0  0  0  0  0  0  0  0  0
   -4.3239   31.9163    2.5332 C   0  0  0  0  0  0  0  0  0  0  0  0
   -4.5400   30.5812    2.6750 N   0  0  0  0  0  0  0  0  0  0  0  0
   -4.0793   26.5314    4.8329 C   0  0  0  0  0  0  0  0  0  0  0  0
   -3.0562   25.9428    5.5963 C   0  0  0  0  0  0  0  0  0  0  0  0
   -2.9167   24.5534    5.6531 C   0  0  0  0  0  0  0  0  0  0  0  0
   -3.7914   23.7312    4.9454 C   0  0  0  0  0  0  0  0  0  0  0  0
   -4.8059   24.3009    4.1841 C   0  0  0  0  0  0  0  0  0  0  0  0
   -5.8849   23.2963    3.3007 Cl  0  0  0  0  0  0  0  0  0  0  0  0
   -4.9534   25.6889    4.1224 C   0  0  0  0  0  0  0  0  0  0  0  0
  2  1  1  6
  2  3  1  0
  3  4  1  0
  4  5  2  0
  5  6  1  0
  6  7  2  0
  7  8  1  0
  8  9  2  0
  2 10  1  0
 10 11  2  0
 11 12  1  0
 12 13  2  0
 13 14  1  0
 14 15  1  0
 14 16  2  0
  9  4  1  0
 16 10  1  0
M  CHG  1   3   1
M  END
>  <Energy>  (922) 
31.407253544181483

>  <Energy_Delta>  (922) 
1.3840904353177521

>  <std_smi>  (922) 
CC(Nc1cnccn1)c1cccc(Cl)c1

>  <enum_smi>  (922) 
C[C@H]([NH2+]c1cnccn1)c1cccc(Cl)c1

>  <enum_code>  (922) 
M

>  <parent_uuid>  (922) 
6620cc01-fc2b-4cc4-81f0-045e40704b17

>  <o3da_score>  (922) 
70.207188316437893

>  <o3da_score_rel>  (922) 
0.27950501750285806

>  <o3da_align>  (922) 
0.41361534331450051

>  <RMSD>  (922) 
5.5709397618017699e-05

>  <CONVERGED>  (922) 
0

>  <ENERGY>  (922) 
31.407253542514319

$$$$
8775d7fa-f90a-4a07-aee3-d51c1f719189
     RDKit          3D

 16 17  0  0  0  0  0  0  0  0999 V2000
   -5.6425   28.5190    5.0830 C   0  0  0  0  0  0  0  0  0  0  0  0
   -4.2361   28.0661    4.6810 C   0  0  2  0  0  0  0  0  0  0  0  0
   -3.8696   28.6059    3.3413 N   0  0  0  0  0  4  0  0  0  0  0  0
   -3.6687   30.0269    3.3106 C   0  0  0  0  0  0  0  0  0  0  0  0
   -2.5125   30.6420    3.7756 C   0  0  0  0  0  0  0  0  0  0  0  0
   -2.3416   31.9805    3.7081 N   0  0  0  0  0  0  0  0  0  0  0  0
   -3.3579   32.6784    3.1475 C   0  0  0  0  0  0  0  0  0  0  0  0
   -4.4999   32.0516    2.6746 C   0  0  0  0  0  0  0  0  0  0  0  0
   -4.6767   30.7050    2.7441 N   0  0  0  0  0  0  0  0  0  0  0  0
   -4.0903   26.5555    4.6614 C   0  0  0  0  0  0  0  0  0  0  0  0
   -5.0018   25.7277    3.9825 C   0  0  0  0  0  0  0  0  0  0  0  0
   -4.8201   24.3421    3.9512 C   0  0  0  0  0  0  0  0  0  0  0  0
   -3.7245   23.7628    4.5887 C   0  0  0  0  0  0  0  0  0  0  0  0
   -2.8128   24.5710    5.2585 C   0  0  0  0  0  0  0  0  0  0  0  0
   -1.4533   23.8678    6.0400 Cl  0  0  0  0  0  0  0  0  0  0  0  0
   -2.9872   25.9564    5.2959 C   0  0  0  0  0  0  0  0  0  0  0  0
  2  1  1  6
  2  3  1  0
  3  4  1  0
  4  5  2  0
  5  6  1  0
  6  7  2  0
  7  8  1  0
  8  9  2  0
  2 10  1  0
 10 11  2  0
 11 12  1  0
 12 13  2  0
 13 14  1  0
 14 15  1  0
 14 16  2  0
  9  4  1  0
 16 10  1  0
M  CHG  1   3   1
M  END
>  <Energy>  (923) 
31.466324508168682

>  <Energy_Delta>  (923) 
1.4431613993049517

>  <std_smi>  (923) 
CC(Nc1cnccn1)c1cccc(Cl)c1

>  <enum_smi>  (923) 
C[C@H]([NH2+]c1cnccn1)c1cccc(Cl)c1

>  <enum_code>  (923) 
M

>  <parent_uuid>  (923) 
6620cc01-fc2b-4cc4-81f0-045e40704b17

>  <o3da_score>  (923) 
70.428645560552312

>  <o3da_score_rel>  (923) 
0.28038667096850245

>  <o3da_align>  (923) 
0.40058647266456388

>  <RMSD>  (923) 
7.3356247790336515e-05

>  <CONVERGED>  (923) 
0

>  <ENERGY>  (923) 
31.466324506661401

$$$$
8775d7fa-f90a-4a07-aee3-d51c1f719189
     RDKit          3D

 16 17  0  0  0  0  0  0  0  0999 V2000
   -3.0804   29.8317    5.6503 C   0  0  0  0  0  0  0  0  0  0  0  0
   -3.3655   28.8782    4.4873 C   0  0  2  0  0  0  0  0  0  0  0  0
   -3.6985   29.6476    3.2533 N   0  0  0  0  0  4  0  0  0  0  0  0
   -2.5568   30.2500    2.6235 C   0  0  0  0  0  0  0  0  0  0  0  0
   -2.1988   31.5787    2.8162 C   0  0  0  0  0  0  0  0  0  0  0  0
   -1.1413   32.1318    2.1821 N   0  0  0  0  0  0  0  0  0  0  0  0
   -0.4649   31.3162    1.3391 C   0  0  0  0  0  0  0  0  0  0  0  0
   -0.8397   29.9965    1.1442 C   0  0  0  0  0  0  0  0  0  0  0  0
   -1.9012   29.4359    1.7834 N   0  0  0  0  0  0  0  0  0  0  0  0
   -4.4964   27.9098    4.7848 C   0  0  0  0  0  0  0  0  0  0  0  0
   -4.3479   26.5500    4.4585 C   0  0  0  0  0  0  0  0  0  0  0  0
   -5.3859   25.6424    4.6853 C   0  0  0  0  0  0  0  0  0  0  0  0
   -6.5908   26.0784    5.2327 C   0  0  0  0  0  0  0  0  0  0  0  0
   -6.7537   27.4218    5.5522 C   0  0  0  0  0  0  0  0  0  0  0  0
   -8.2404   27.9728    6.2162 Cl  0  0  0  0  0  0  0  0  0  0  0  0
   -5.7205   28.3362    5.3296 C   0  0  0  0  0  0  0  0  0  0  0  0
  2  1  1  1
  2  3  1  0
  3  4  1  0
  4  5  2  0
  5  6  1  0
  6  7  2  0
  7  8  1  0
  8  9  2  0
  2 10  1  0
 10 11  2  0
 11 12  1  0
 12 13  2  0
 13 14  1  0
 14 15  1  0
 14 16  2  0
  9  4  1  0
 16 10  1  0
M  CHG  1   3   1
M  END
>  <Energy>  (924) 
31.639813551598252

>  <Energy_Delta>  (924) 
1.616650442734521

>  <std_smi>  (924) 
CC(Nc1cnccn1)c1cccc(Cl)c1

>  <enum_smi>  (924) 
C[C@H]([NH2+]c1cnccn1)c1cccc(Cl)c1

>  <enum_code>  (924) 
M

>  <parent_uuid>  (924) 
6620cc01-fc2b-4cc4-81f0-045e40704b17

>  <o3da_score>  (924) 
65.673574089762923

>  <o3da_score_rel>  (924) 
0.26145604055100213

>  <o3da_align>  (924) 
0.63113047106609277

>  <RMSD>  (924) 
6.2811418782361862e-05

>  <CONVERGED>  (924) 
0

>  <ENERGY>  (924) 
31.639813550899728

$$$$
8775d7fa-f90a-4a07-aee3-d51c1f719189
     RDKit          3D

 16 17  0  0  0  0  0  0  0  0999 V2000
   -5.7940   28.4982    4.9761 C   0  0  0  0  0  0  0  0  0  0  0  0
   -4.3519   28.0749    4.6851 C   0  0  2  0  0  0  0  0  0  0  0  0
   -3.9021   28.6331    3.3767 N   0  0  0  0  0  4  0  0  0  0  0  0
   -3.5954   30.0353    3.4228 C   0  0  0  0  0  0  0  0  0  0  0  0
   -4.4915   31.0205    3.0264 C   0  0  0  0  0  0  0  0  0  0  0  0
   -4.1643   32.3316    3.0443 N   0  0  0  0  0  0  0  0  0  0  0  0
   -2.9077   32.6214    3.4576 C   0  0  0  0  0  0  0  0  0  0  0  0
   -2.0180   31.6293    3.8372 C   0  0  0  0  0  0  0  0  0  0  0  0
   -2.3454   30.3094    3.8231 N   0  0  0  0  0  0  0  0  0  0  0  0
   -4.1643   26.5680    4.6655 C   0  0  0  0  0  0  0  0  0  0  0  0
   -5.0742   25.7025    4.0341 C   0  0  0  0  0  0  0  0  0  0  0  0
   -4.8427   24.3240    4.0030 C   0  0  0  0  0  0  0  0  0  0  0  0
   -3.6975   23.7899    4.5910 C   0  0  0  0  0  0  0  0  0  0  0  0
   -2.7845   24.6360    5.2102 C   0  0  0  0  0  0  0  0  0  0  0  0
   -1.3635   23.9889    5.9280 Cl  0  0  0  0  0  0  0  0  0  0  0  0
   -3.0086   26.0140    5.2469 C   0  0  0  0  0  0  0  0  0  0  0  0
  2  1  1  6
  2  3  1  0
  3  4  1  0
  4  5  2  0
  5  6  1  0
  6  7  2  0
  7  8  1  0
  8  9  2  0
  2 10  1  0
 10 11  2  0
 11 12  1  0
 12 13  2  0
 13 14  1  0
 14 15  1  0
 14 16  2  0
  9  4  1  0
 16 10  1  0
M  CHG  1   3   1
M  END
>  <Energy>  (925) 
31.815018160339385

>  <Energy_Delta>  (925) 
1.7918550514756539

>  <std_smi>  (925) 
CC(Nc1cnccn1)c1cccc(Cl)c1

>  <enum_smi>  (925) 
C[C@H]([NH2+]c1cnccn1)c1cccc(Cl)c1

>  <enum_code>  (925) 
M

>  <parent_uuid>  (925) 
6620cc01-fc2b-4cc4-81f0-045e40704b17

>  <o3da_score>  (925) 
71.419129289880203

>  <o3da_score_rel>  (925) 
0.28432993060816059

>  <o3da_align>  (925) 
0.34185686987578479

>  <RMSD>  (925) 
5.9943191381752411e-05

>  <CONVERGED>  (925) 
0

>  <ENERGY>  (925) 
31.81501815898768

$$$$
8775d7fa-f90a-4a07-aee3-d51c1f719189
     RDKit          3D

 16 17  0  0  0  0  0  0  0  0999 V2000
   -5.0901   28.5316    6.3121 C   0  0  0  0  0  0  0  0  0  0  0  0
   -3.8014   28.8038    5.5325 C   0  0  2  0  0  0  0  0  0  0  0  0
   -4.1907   29.2155    4.1507 N   0  0  0  0  0  4  0  0  0  0  0  0
   -3.0794   29.5600    3.3038 C   0  0  0  0  0  0  0  0  0  0  0  0
   -2.2970   30.6943    3.4833 C   0  0  0  0  0  0  0  0  0  0  0  0
   -1.2741   30.9937    2.6528 N   0  0  0  0  0  0  0  0  0  0  0  0
   -1.0700   30.1256    1.6330 C   0  0  0  0  0  0  0  0  0  0  0  0
   -1.8694   29.0077    1.4537 C   0  0  0  0  0  0  0  0  0  0  0  0
   -2.9022   28.7074    2.2849 N   0  0  0  0  0  0  0  0  0  0  0  0
   -2.8558   27.6201    5.5701 C   0  0  0  0  0  0  0  0  0  0  0  0
   -1.5556   27.7796    6.0807 C   0  0  0  0  0  0  0  0  0  0  0  0
   -0.6593   26.7077    6.1007 C   0  0  0  0  0  0  0  0  0  0  0  0
   -1.0453   25.4620    5.6099 C   0  0  0  0  0  0  0  0  0  0  0  0
   -2.3288   25.2910    5.1027 C   0  0  0  0  0  0  0  0  0  0  0  0
   -2.8128   23.7598    4.4895 Cl  0  0  0  0  0  0  0  0  0  0  0  0
   -3.2321   26.3564    5.0811 C   0  0  0  0  0  0  0  0  0  0  0  0
  2  1  1  1
  2  3  1  0
  3  4  1  0
  4  5  2  0
  5  6  1  0
  6  7  2  0
  7  8  1  0
  8  9  2  0
  2 10  1  0
 10 11  2  0
 11 12  1  0
 12 13  2  0
 13 14  1  0
 14 15  1  0
 14 16  2  0
  9  4  1  0
 16 10  1  0
M  CHG  1   3   1
M  END
>  <Energy>  (926) 
31.976904154309281

>  <Energy_Delta>  (926) 
1.9537410454455504

>  <std_smi>  (926) 
CC(Nc1cnccn1)c1cccc(Cl)c1

>  <enum_smi>  (926) 
C[C@H]([NH2+]c1cnccn1)c1cccc(Cl)c1

>  <enum_code>  (926) 
M

>  <parent_uuid>  (926) 
6620cc01-fc2b-4cc4-81f0-045e40704b17

>  <o3da_score>  (926) 
71.472040886495179

>  <o3da_score_rel>  (926) 
0.28454057936212174

>  <o3da_align>  (926) 
0.56074135890817545

>  <RMSD>  (926) 
6.0885962293672058e-05

>  <CONVERGED>  (926) 
0

>  <ENERGY>  (926) 
31.97690415148686

$$$$
8775d7fa-f90a-4a07-aee3-d51c1f719189
     RDKit          3D

 16 17  0  0  0  0  0  0  0  0999 V2000
   -5.0040   28.4194    6.2691 C   0  0  0  0  0  0  0  0  0  0  0  0
   -3.7272   28.7251    5.4815 C   0  0  2  0  0  0  0  0  0  0  0  0
   -4.1330   29.0773    4.0880 N   0  0  0  0  0  4  0  0  0  0  0  0
   -3.0470   29.5288    3.2585 C   0  0  0  0  0  0  0  0  0  0  0  0
   -2.4163   30.7565    3.4215 C   0  0  0  0  0  0  0  0  0  0  0  0
   -1.4107   31.1544    2.6118 N   0  0  0  0  0  0  0  0  0  0  0  0
   -1.0664   30.2872    1.6299 C   0  0  0  0  0  0  0  0  0  0  0  0
   -1.7164   29.0742    1.4656 C   0  0  0  0  0  0  0  0  0  0  0  0
   -2.7327   28.6742    2.2751 N   0  0  0  0  0  0  0  0  0  0  0  0
   -2.7249   27.5895    5.5408 C   0  0  0  0  0  0  0  0  0  0  0  0
   -3.0702   26.2710    5.1953 C   0  0  0  0  0  0  0  0  0  0  0  0
   -2.1149   25.2512    5.2290 C   0  0  0  0  0  0  0  0  0  0  0  0
   -0.8015   25.5314    5.6010 C   0  0  0  0  0  0  0  0  0  0  0  0
   -0.4462   26.8318    5.9412 C   0  0  0  0  0  0  0  0  0  0  0  0
    1.1733   27.1896    6.3917 Cl  0  0  0  0  0  0  0  0  0  0  0  0
   -1.3951   27.8562    5.9140 C   0  0  0  0  0  0  0  0  0  0  0  0
  2  1  1  1
  2  3  1  0
  3  4  1  0
  4  5  2  0
  5  6  1  0
  6  7  2  0
  7  8  1  0
  8  9  2  0
  2 10  1  0
 10 11  2  0
 11 12  1  0
 12 13  2  0
 13 14  1  0
 14 15  1  0
 14 16  2  0
  9  4  1  0
 16 10  1  0
M  CHG  1   3   1
M  END
>  <Energy>  (927) 
32.129384262009289

>  <Energy_Delta>  (927) 
2.1062211531455581

>  <std_smi>  (927) 
CC(Nc1cnccn1)c1cccc(Cl)c1

>  <enum_smi>  (927) 
C[C@H]([NH2+]c1cnccn1)c1cccc(Cl)c1

>  <enum_code>  (927) 
M

>  <parent_uuid>  (927) 
6620cc01-fc2b-4cc4-81f0-045e40704b17

>  <o3da_score>  (927) 
67.939704126035366

>  <o3da_score_rel>  (927) 
0.27047783348475768

>  <o3da_align>  (927) 
0.47762061017374158

>  <RMSD>  (927) 
6.6668587862383141e-05

>  <CONVERGED>  (927) 
0

>  <ENERGY>  (927) 
32.129384189685538

$$$$
8775d7fa-f90a-4a07-aee3-d51c1f719189
     RDKit          3D

 16 17  0  0  0  0  0  0  0  0999 V2000
   -4.9055   29.5541    5.4682 C   0  0  0  0  0  0  0  0  0  0  0  0
   -3.6028   28.7513    5.3889 C   0  0  2  0  0  0  0  0  0  0  0  0
   -2.6084   29.4329    4.5052 N   0  0  0  0  0  4  0  0  0  0  0  0
   -3.0032   29.5777    3.1285 C   0  0  0  0  0  0  0  0  0  0  0  0
   -2.8182   28.5913    2.1666 C   0  0  0  0  0  0  0  0  0  0  0  0
   -3.1504   28.7875    0.8705 N   0  0  0  0  0  0  0  0  0  0  0  0
   -3.6561   30.0059    0.5674 C   0  0  0  0  0  0  0  0  0  0  0  0
   -3.8177   30.9882    1.5308 C   0  0  0  0  0  0  0  0  0  0  0  0
   -3.4858   30.7948    2.8352 N   0  0  0  0  0  0  0  0  0  0  0  0
   -3.7424   27.2730    5.0808 C   0  0  0  0  0  0  0  0  0  0  0  0
   -4.8150   26.7476    4.3409 C   0  0  0  0  0  0  0  0  0  0  0  0
   -4.8797   25.3823    4.0458 C   0  0  0  0  0  0  0  0  0  0  0  0
   -3.8766   24.5194    4.4822 C   0  0  0  0  0  0  0  0  0  0  0  0
   -2.8110   25.0236    5.2178 C   0  0  0  0  0  0  0  0  0  0  0  0
   -1.5628   23.9728    5.7565 Cl  0  0  0  0  0  0  0  0  0  0  0  0
   -2.7386   26.3863    5.5167 C   0  0  0  0  0  0  0  0  0  0  0  0
  2  1  1  6
  2  3  1  0
  3  4  1  0
  4  5  2  0
  5  6  1  0
  6  7  2  0
  7  8  1  0
  8  9  2  0
  2 10  1  0
 10 11  2  0
 11 12  1  0
 12 13  2  0
 13 14  1  0
 14 15  1  0
 14 16  2  0
  9  4  1  0
 16 10  1  0
M  CHG  1   3   1
M  END
>  <Energy>  (928) 
32.25743809619015

>  <Energy_Delta>  (928) 
2.2342749873264189

>  <std_smi>  (928) 
CC(Nc1cnccn1)c1cccc(Cl)c1

>  <enum_smi>  (928) 
C[C@H]([NH2+]c1cnccn1)c1cccc(Cl)c1

>  <enum_code>  (928) 
M

>  <parent_uuid>  (928) 
6620cc01-fc2b-4cc4-81f0-045e40704b17

>  <o3da_score>  (928) 
57.955388146325333

>  <o3da_score_rel>  (928) 
0.23072882088956834

>  <o3da_align>  (928) 
0.53868995977906153

>  <RMSD>  (928) 
6.50065646296602e-05

>  <CONVERGED>  (928) 
0

>  <ENERGY>  (928) 
32.257438072917225

$$$$
8775d7fa-f90a-4a07-aee3-d51c1f719189
     RDKit          3D

 16 17  0  0  0  0  0  0  0  0999 V2000
   -5.9377   28.5628    4.8675 C   0  0  0  0  0  0  0  0  0  0  0  0
   -4.5596   28.0719    5.3231 C   0  0  2  0  0  0  0  0  0  0  0  0
   -3.4881   29.0273    4.9072 N   0  0  0  0  0  4  0  0  0  0  0  0
   -3.3203   29.1856    3.4862 C   0  0  0  0  0  0  0  0  0  0  0  0
   -2.5175   28.3570    2.7107 C   0  0  0  0  0  0  0  0  0  0  0  0
   -2.3355   28.5737    1.3888 N   0  0  0  0  0  0  0  0  0  0  0  0
   -2.9715   29.6513    0.8729 C   0  0  0  0  0  0  0  0  0  0  0  0
   -3.7535   30.4815    1.6593 C   0  0  0  0  0  0  0  0  0  0  0  0
   -3.9365   30.2692    2.9900 N   0  0  0  0  0  0  0  0  0  0  0  0
   -4.2191   26.6304    4.9972 C   0  0  0  0  0  0  0  0  0  0  0  0
   -3.3114   25.9350    5.8191 C   0  0  0  0  0  0  0  0  0  0  0  0
   -2.9448   24.6182    5.5293 C   0  0  0  0  0  0  0  0  0  0  0  0
   -3.4745   23.9739    4.4136 C   0  0  0  0  0  0  0  0  0  0  0  0
   -4.3731   24.6470    3.5935 C   0  0  0  0  0  0  0  0  0  0  0  0
   -5.0259   23.8619    2.2109 Cl  0  0  0  0  0  0  0  0  0  0  0  0
   -4.7457   25.9638    3.8772 C   0  0  0  0  0  0  0  0  0  0  0  0
  2  1  1  6
  2  3  1  0
  3  4  1  0
  4  5  2  0
  5  6  1  0
  6  7  2  0
  7  8  1  0
  8  9  2  0
  2 10  1  0
 10 11  2  0
 11 12  1  0
 12 13  2  0
 13 14  1  0
 14 15  1  0
 14 16  2  0
  9  4  1  0
 16 10  1  0
M  CHG  1   3   1
M  END
>  <Energy>  (929) 
32.475502806061101

>  <Energy_Delta>  (929) 
2.4523396971973703

>  <std_smi>  (929) 
CC(Nc1cnccn1)c1cccc(Cl)c1

>  <enum_smi>  (929) 
C[C@H]([NH2+]c1cnccn1)c1cccc(Cl)c1

>  <enum_code>  (929) 
M

>  <parent_uuid>  (929) 
6620cc01-fc2b-4cc4-81f0-045e40704b17

>  <o3da_score>  (929) 
71.243815002516669

>  <o3da_score_rel>  (929) 
0.28363197895772291

>  <o3da_align>  (929) 
0.49864494828416334

>  <RMSD>  (929) 
6.9726735296906807e-05

>  <CONVERGED>  (929) 
0

>  <ENERGY>  (929) 
32.475502791288164

$$$$
8775d7fa-f90a-4a07-aee3-d51c1f719189
     RDKit          3D

 16 17  0  0  0  0  0  0  0  0999 V2000
   -5.9874   28.5201    5.1067 C   0  0  0  0  0  0  0  0  0  0  0  0
   -4.5311   28.1058    5.3317 C   0  0  2  0  0  0  0  0  0  0  0  0
   -3.5967   29.1121    4.7411 N   0  0  0  0  0  4  0  0  0  0  0  0
   -3.4684   29.0881    3.3081 C   0  0  0  0  0  0  0  0  0  0  0  0
   -4.3402   29.7416    2.4461 C   0  0  0  0  0  0  0  0  0  0  0  0
   -4.1663   29.7260    1.1060 N   0  0  0  0  0  0  0  0  0  0  0  0
   -3.0814   29.0497    0.6595 C   0  0  0  0  0  0  0  0  0  0  0  0
   -2.2020   28.4265    1.5296 C   0  0  0  0  0  0  0  0  0  0  0  0
   -2.3721   28.4472    2.8780 N   0  0  0  0  0  0  0  0  0  0  0  0
   -4.1938   26.6717    4.9725 C   0  0  0  0  0  0  0  0  0  0  0  0
   -3.2460   25.9716    5.7427 C   0  0  0  0  0  0  0  0  0  0  0  0
   -2.8830   24.6618    5.4176 C   0  0  0  0  0  0  0  0  0  0  0  0
   -3.4521   24.0313    4.3136 C   0  0  0  0  0  0  0  0  0  0  0  0
   -4.3848   24.7126    3.5397 C   0  0  0  0  0  0  0  0  0  0  0  0
   -5.0794   23.9497    2.1645 Cl  0  0  0  0  0  0  0  0  0  0  0  0
   -4.7582   26.0202    3.8619 C   0  0  0  0  0  0  0  0  0  0  0  0
  2  1  1  6
  2  3  1  0
  3  4  1  0
  4  5  2  0
  5  6  1  0
  6  7  2  0
  7  8  1  0
  8  9  2  0
  2 10  1  0
 10 11  2  0
 11 12  1  0
 12 13  2  0
 13 14  1  0
 14 15  1  0
 14 16  2  0
  9  4  1  0
 16 10  1  0
M  CHG  1   3   1
M  END
>  <Energy>  (930) 
34.67708980914928

>  <Energy_Delta>  (930) 
4.6539267002855489

>  <std_smi>  (930) 
CC(Nc1cnccn1)c1cccc(Cl)c1

>  <enum_smi>  (930) 
C[C@H]([NH2+]c1cnccn1)c1cccc(Cl)c1

>  <enum_code>  (930) 
M

>  <parent_uuid>  (930) 
6620cc01-fc2b-4cc4-81f0-045e40704b17

>  <o3da_score>  (930) 
71.35925932058403

>  <o3da_score_rel>  (930) 
0.28409157956153269

>  <o3da_align>  (930) 
0.53291486281840961

>  <RMSD>  (930) 
6.2895526115625675e-05

>  <CONVERGED>  (930) 
0

>  <ENERGY>  (930) 
34.677089792628507

$$$$
cb474f04-daaa-4d46-a2e3-0dfc4fef4a35
     RDKit          3D

 16 17  0  0  0  0  0  0  0  0999 V2000
   -2.4313   28.0560    5.9670 C   0  0  0  0  0  0  0  0  0  0  0  0
   -3.4489   28.8507    5.1481 C   0  0  2  0  0  0  0  0  0  0  0  0
   -4.6295   28.0057    4.8705 N   0  0  0  0  0  0  0  0  0  0  0  0
   -5.7491   28.4441    4.2127 C   0  0  0  0  0  0  0  0  0  0  0  0
   -6.0926   29.7926    3.9736 C   0  0  0  0  0  0  0  0  0  0  0  0
   -7.2213   30.0941    3.3026 N   0  0  0  0  0  4  0  0  0  0  0  0
   -8.0560   29.1413    2.8528 C   0  0  0  0  0  0  0  0  0  0  0  0
   -7.7419   27.8067    3.0951 C   0  0  0  0  0  0  0  0  0  0  0  0
   -6.6131   27.5102    3.7634 N   0  0  0  0  0  4  0  0  0  0  0  0
   -2.8330   29.3537    3.8557 C   0  0  0  0  0  0  0  0  0  0  0  0
   -2.4446   30.6994    3.7427 C   0  0  0  0  0  0  0  0  0  0  0  0
   -1.8920   31.1851    2.5546 C   0  0  0  0  0  0  0  0  0  0  0  0
   -1.7175   30.3353    1.4633 C   0  0  0  0  0  0  0  0  0  0  0  0
   -2.0778   28.9965    1.5707 C   0  0  0  0  0  0  0  0  0  0  0  0
   -1.8862   27.9402    0.2296 Cl  0  0  0  0  0  0  0  0  0  0  0  0
   -2.6192   28.5014    2.7584 C   0  0  0  0  0  0  0  0  0  0  0  0
  2  1  1  6
  2  3  1  0
  3  4  1  0
  4  5  2  0
  5  6  1  0
  6  7  2  0
  7  8  1  0
  8  9  2  0
  2 10  1  0
 10 11  2  0
 11 12  1  0
 12 13  2  0
 13 14  1  0
 14 15  1  0
 14 16  2  0
  9  4  1  0
 16 10  1  0
M  CHG  2   6   1   9   1
M  END
>  <Energy>  (931) 
138.04077989928899

>  <Energy_Delta>  (931) 
0

>  <std_smi>  (931) 
CC(Nc1cnccn1)c1cccc(Cl)c1

>  <enum_smi>  (931) 
C[C@H](Nc1c[nH+]cc[nH+]1)c1cccc(Cl)c1

>  <enum_code>  (931) 
M

>  <parent_uuid>  (931) 
6620cc01-fc2b-4cc4-81f0-045e40704b17

>  <o3da_score>  (931) 
68.80058356772048

>  <o3da_score_rel>  (931) 
0.27390511962434105

>  <o3da_align>  (931) 
0.36709914522870984

>  <RMSD>  (931) 
7.7206400482212435e-05

>  <CONVERGED>  (931) 
0

>  <ENERGY>  (931) 
138.04077967378302

$$$$
cb474f04-daaa-4d46-a2e3-0dfc4fef4a35
     RDKit          3D

 16 17  0  0  0  0  0  0  0  0999 V2000
   -5.9778   28.3350    5.3507 C   0  0  0  0  0  0  0  0  0  0  0  0
   -4.6997   28.0427    4.5629 C   0  0  2  0  0  0  0  0  0  0  0  0
   -4.8579   28.5135    3.1703 N   0  0  0  0  0  0  0  0  0  0  0  0
   -3.8351   28.4998    2.2541 C   0  0  0  0  0  0  0  0  0  0  0  0
   -2.4561   28.4942    2.5582 C   0  0  0  0  0  0  0  0  0  0  0  0
   -1.5442   28.4849    1.5663 N   0  0  0  0  0  4  0  0  0  0  0  0
   -1.9043   28.4962    0.2714 C   0  0  0  0  0  0  0  0  0  0  0  0
   -3.2595   28.5248   -0.0468 C   0  0  0  0  0  0  0  0  0  0  0  0
   -4.1663   28.5311    0.9465 N   0  0  0  0  0  4  0  0  0  0  0  0
   -4.3559   26.5649    4.5681 C   0  0  0  0  0  0  0  0  0  0  0  0
   -5.1962   25.6056    3.9763 C   0  0  0  0  0  0  0  0  0  0  0  0
   -4.8413   24.2539    3.9673 C   0  0  0  0  0  0  0  0  0  0  0  0
   -3.6417   23.8401    4.5442 C   0  0  0  0  0  0  0  0  0  0  0  0
   -2.8093   24.7778    5.1452 C   0  0  0  0  0  0  0  0  0  0  0  0
   -1.3165   24.2868    5.8388 Cl  0  0  0  0  0  0  0  0  0  0  0  0
   -3.1634   26.1284    5.1696 C   0  0  0  0  0  0  0  0  0  0  0  0
  2  1  1  1
  2  3  1  0
  3  4  1  0
  4  5  2  0
  5  6  1  0
  6  7  2  0
  7  8  1  0
  8  9  2  0
  2 10  1  0
 10 11  2  0
 11 12  1  0
 12 13  2  0
 13 14  1  0
 14 15  1  0
 14 16  2  0
  9  4  1  0
 16 10  1  0
M  CHG  2   6   1   9   1
M  END
>  <Energy>  (932) 
138.50225661955218

>  <Energy_Delta>  (932) 
0.46147672026319242

>  <std_smi>  (932) 
CC(Nc1cnccn1)c1cccc(Cl)c1

>  <enum_smi>  (932) 
C[C@H](Nc1c[nH+]cc[nH+]1)c1cccc(Cl)c1

>  <enum_code>  (932) 
M

>  <parent_uuid>  (932) 
6620cc01-fc2b-4cc4-81f0-045e40704b17

>  <o3da_score>  (932) 
70.312775563193654

>  <o3da_score_rel>  (932) 
0.2799253756735845

>  <o3da_align>  (932) 
0.33513156378762088

>  <RMSD>  (932) 
7.0189069133509018e-05

>  <CONVERGED>  (932) 
0

>  <ENERGY>  (932) 
138.50225635729777

$$$$
cb474f04-daaa-4d46-a2e3-0dfc4fef4a35
     RDKit          3D

 16 17  0  0  0  0  0  0  0  0999 V2000
   -2.4951   28.1288    5.9810 C   0  0  0  0  0  0  0  0  0  0  0  0
   -3.4696   28.8818    5.0766 C   0  0  2  0  0  0  0  0  0  0  0  0
   -4.6201   28.0132    4.7616 N   0  0  0  0  0  0  0  0  0  0  0  0
   -5.7204   28.3823    4.0119 C   0  0  0  0  0  0  0  0  0  0  0  0
   -6.8184   27.5055    3.8565 C   0  0  0  0  0  0  0  0  0  0  0  0
   -7.9029   27.8960    3.1604 N   0  0  0  0  0  4  0  0  0  0  0  0
   -7.9853   29.1177    2.6051 C   0  0  0  0  0  0  0  0  0  0  0  0
   -6.9201   30.0008    2.7646 C   0  0  0  0  0  0  0  0  0  0  0  0
   -5.8404   29.6092    3.4654 N   0  0  0  0  0  4  0  0  0  0  0  0
   -2.7816   29.3689    3.8155 C   0  0  0  0  0  0  0  0  0  0  0  0
   -2.3896   30.7151    3.7137 C   0  0  0  0  0  0  0  0  0  0  0  0
   -1.7810   31.1945    2.5510 C   0  0  0  0  0  0  0  0  0  0  0  0
   -1.5507   30.3375    1.4757 C   0  0  0  0  0  0  0  0  0  0  0  0
   -1.9101   28.9979    1.5749 C   0  0  0  0  0  0  0  0  0  0  0  0
   -1.6477   27.9338    0.2526 Cl  0  0  0  0  0  0  0  0  0  0  0  0
   -2.5098   28.5092    2.7374 C   0  0  0  0  0  0  0  0  0  0  0  0
  2  1  1  1
  2  3  1  0
  3  4  1  0
  4  5  2  0
  5  6  1  0
  6  7  2  0
  7  8  1  0
  8  9  2  0
  2 10  1  0
 10 11  2  0
 11 12  1  0
 12 13  2  0
 13 14  1  0
 14 15  1  0
 14 16  2  0
  9  4  1  0
 16 10  1  0
M  CHG  2   6   1   9   1
M  END
>  <Energy>  (933) 
138.52065952695955

>  <Energy_Delta>  (933) 
0.47987962767055592

>  <std_smi>  (933) 
CC(Nc1cnccn1)c1cccc(Cl)c1

>  <enum_smi>  (933) 
C[C@H](Nc1c[nH+]cc[nH+]1)c1cccc(Cl)c1

>  <enum_code>  (933) 
M

>  <parent_uuid>  (933) 
6620cc01-fc2b-4cc4-81f0-045e40704b17

>  <o3da_score>  (933) 
68.793358254054226

>  <o3da_score_rel>  (933) 
0.27387635460082738

>  <o3da_align>  (933) 
0.36259431822662702

>  <RMSD>  (933) 
0.11160226027586165

>  <CONVERGED>  (933) 
0

>  <ENERGY>  (933) 
138.99146220238208

$$$$
cb474f04-daaa-4d46-a2e3-0dfc4fef4a35
     RDKit          3D

 16 17  0  0  0  0  0  0  0  0999 V2000
   -2.4936   27.9217    5.9396 C   0  0  0  0  0  0  0  0  0  0  0  0
   -3.4522   28.7734    5.1081 C   0  0  2  0  0  0  0  0  0  0  0  0
   -4.6634   27.9908    4.7989 N   0  0  0  0  0  0  0  0  0  0  0  0
   -5.7888   28.4781    4.1627 C   0  0  0  0  0  0  0  0  0  0  0  0
   -6.9457   27.6774    4.0239 C   0  0  0  0  0  0  0  0  0  0  0  0
   -8.0545   28.1836    3.4514 N   0  0  0  0  0  4  0  0  0  0  0  0
   -8.1055   29.4511    3.0056 C   0  0  0  0  0  0  0  0  0  0  0  0
   -6.9799   30.2587    3.1493 C   0  0  0  0  0  0  0  0  0  0  0  0
   -5.8760   29.7509    3.7270 N   0  0  0  0  0  4  0  0  0  0  0  0
   -2.7906   29.2755    3.8393 C   0  0  0  0  0  0  0  0  0  0  0  0
   -2.4949   28.4201    2.7643 C   0  0  0  0  0  0  0  0  0  0  0  0
   -1.9053   28.9173    1.5990 C   0  0  0  0  0  0  0  0  0  0  0  0
   -1.5990   30.2729    1.4905 C   0  0  0  0  0  0  0  0  0  0  0  0
   -1.8643   31.1248    2.5567 C   0  0  0  0  0  0  0  0  0  0  0  0
   -1.5075   32.7997    2.4311 Cl  0  0  0  0  0  0  0  0  0  0  0  0
   -2.4456   30.6342    3.7281 C   0  0  0  0  0  0  0  0  0  0  0  0
  2  1  1  6
  2  3  1  0
  3  4  1  0
  4  5  2  0
  5  6  1  0
  6  7  2  0
  7  8  1  0
  8  9  2  0
  2 10  1  0
 10 11  2  0
 11 12  1  0
 12 13  2  0
 13 14  1  0
 14 15  1  0
 14 16  2  0
  9  4  1  0
 16 10  1  0
M  CHG  2   6   1   9   1
M  END
>  <Energy>  (934) 
139.48004581605753

>  <Energy_Delta>  (934) 
1.4392659167685338

>  <std_smi>  (934) 
CC(Nc1cnccn1)c1cccc(Cl)c1

>  <enum_smi>  (934) 
C[C@H](Nc1c[nH+]cc[nH+]1)c1cccc(Cl)c1

>  <enum_code>  (934) 
M

>  <parent_uuid>  (934) 
6620cc01-fc2b-4cc4-81f0-045e40704b17

>  <o3da_score>  (934) 
71.354891477471355

>  <o3da_score_rel>  (934) 
0.28407419054347155

>  <o3da_align>  (934) 
0.38074307897451704

>  <RMSD>  (934) 
0.10516486084842108

>  <CONVERGED>  (934) 
0

>  <ENERGY>  (934) 
139.73326755683411

$$$$
cb474f04-daaa-4d46-a2e3-0dfc4fef4a35
     RDKit          3D

 16 17  0  0  0  0  0  0  0  0999 V2000
   -6.1080   28.4687    4.4852 C   0  0  0  0  0  0  0  0  0  0  0  0
   -4.7933   28.0840    5.1689 C   0  0  2  0  0  0  0  0  0  0  0  0
   -3.7882   29.1443    4.9221 N   0  0  0  0  0  0  0  0  0  0  0  0
   -3.0538   29.3538    3.7895 C   0  0  0  0  0  0  0  0  0  0  0  0
   -3.1573   28.6414    2.5752 C   0  0  0  0  0  0  0  0  0  0  0  0
   -2.3407   28.9340    1.5441 N   0  0  0  0  0  4  0  0  0  0  0  0
   -1.4148   29.9042    1.6244 C   0  0  0  0  0  0  0  0  0  0  0  0
   -1.3036   30.6252    2.8094 C   0  0  0  0  0  0  0  0  0  0  0  0
   -2.1191   30.3273    3.8365 N   0  0  0  0  0  4  0  0  0  0  0  0
   -4.2282   26.7055    4.8656 C   0  0  0  0  0  0  0  0  0  0  0  0
   -4.9077   25.7563    4.0838 C   0  0  0  0  0  0  0  0  0  0  0  0
   -4.3429   24.5028    3.8232 C   0  0  0  0  0  0  0  0  0  0  0  0
   -3.0931   24.1717    4.3427 C   0  0  0  0  0  0  0  0  0  0  0  0
   -2.4200   25.0881    5.1408 C   0  0  0  0  0  0  0  0  0  0  0  0
   -0.8701   24.7071    5.7754 Cl  0  0  0  0  0  0  0  0  0  0  0  0
   -2.9840   26.3357    5.4143 C   0  0  0  0  0  0  0  0  0  0  0  0
  2  1  1  6
  2  3  1  0
  3  4  1  0
  4  5  2  0
  5  6  1  0
  6  7  2  0
  7  8  1  0
  8  9  2  0
  2 10  1  0
 10 11  2  0
 11 12  1  0
 12 13  2  0
 13 14  1  0
 14 15  1  0
 14 16  2  0
  9  4  1  0
 16 10  1  0
M  CHG  2   6   1   9   1
M  END
>  <Energy>  (935) 
140.32518743767187

>  <Energy_Delta>  (935) 
2.2844075383828795

>  <std_smi>  (935) 
CC(Nc1cnccn1)c1cccc(Cl)c1

>  <enum_smi>  (935) 
C[C@H](Nc1c[nH+]cc[nH+]1)c1cccc(Cl)c1

>  <enum_code>  (935) 
M

>  <parent_uuid>  (935) 
6620cc01-fc2b-4cc4-81f0-045e40704b17

>  <o3da_score>  (935) 
93.016401070307325

>  <o3da_score_rel>  (935) 
0.37031180756062221

>  <o3da_align>  (935) 
0.51865915648380079

>  <RMSD>  (935) 
7.363468171627438e-05

>  <CONVERGED>  (935) 
0

>  <ENERGY>  (935) 
140.32518723719025

$$$$
cb474f04-daaa-4d46-a2e3-0dfc4fef4a35
     RDKit          3D

 16 17  0  0  0  0  0  0  0  0999 V2000
   -6.1540   28.5691    4.4981 C   0  0  0  0  0  0  0  0  0  0  0  0
   -4.8677   28.1095    5.1906 C   0  0  2  0  0  0  0  0  0  0  0  0
   -3.8236   29.1424    4.9945 N   0  0  0  0  0  0  0  0  0  0  0  0
   -3.0790   29.3814    3.8561 C   0  0  0  0  0  0  0  0  0  0  0  0
   -2.0849   30.3881    3.8424 C   0  0  0  0  0  0  0  0  0  0  0  0
   -1.2946   30.5466    2.7637 N   0  0  0  0  0  4  0  0  0  0  0  0
   -1.4063   29.7560    1.6822 C   0  0  0  0  0  0  0  0  0  0  0  0
   -2.3645   28.7459    1.6863 C   0  0  0  0  0  0  0  0  0  0  0  0
   -3.1544   28.5936    2.7644 N   0  0  0  0  0  4  0  0  0  0  0  0
   -4.3488   26.7292    4.8179 C   0  0  0  0  0  0  0  0  0  0  0  0
   -5.0570   25.8422    3.9896 C   0  0  0  0  0  0  0  0  0  0  0  0
   -4.5224   24.5938    3.6537 C   0  0  0  0  0  0  0  0  0  0  0  0
   -3.2765   24.2058    4.1432 C   0  0  0  0  0  0  0  0  0  0  0  0
   -2.5770   25.0582    4.9881 C   0  0  0  0  0  0  0  0  0  0  0  0
   -1.0309   24.6073    5.5833 Cl  0  0  0  0  0  0  0  0  0  0  0  0
   -3.1103   26.3004    5.3357 C   0  0  0  0  0  0  0  0  0  0  0  0
  2  1  1  6
  2  3  1  0
  3  4  1  0
  4  5  2  0
  5  6  1  0
  6  7  2  0
  7  8  1  0
  8  9  2  0
  2 10  1  0
 10 11  2  0
 11 12  1  0
 12 13  2  0
 13 14  1  0
 14 15  1  0
 14 16  2  0
  9  4  1  0
 16 10  1  0
M  CHG  2   6   1   9   1
M  END
>  <Energy>  (936) 
140.77241535128354

>  <Energy_Delta>  (936) 
2.7316354519945492

>  <std_smi>  (936) 
CC(Nc1cnccn1)c1cccc(Cl)c1

>  <enum_smi>  (936) 
C[C@H](Nc1c[nH+]cc[nH+]1)c1cccc(Cl)c1

>  <enum_code>  (936) 
M

>  <parent_uuid>  (936) 
6620cc01-fc2b-4cc4-81f0-045e40704b17

>  <o3da_score>  (936) 
99.52934222825165

>  <o3da_score_rel>  (936) 
0.39624077261390717

>  <o3da_align>  (936) 
0.50276248730402662

>  <RMSD>  (936) 
0.0945026140130827

>  <CONVERGED>  (936) 
0

>  <ENERGY>  (936) 
140.02116680079828

$$$$
cb474f04-daaa-4d46-a2e3-0dfc4fef4a35
     RDKit          3D

 16 17  0  0  0  0  0  0  0  0999 V2000
   -6.0978   28.5340    4.5032 C   0  0  0  0  0  0  0  0  0  0  0  0
   -4.7958   28.1225    5.1967 C   0  0  2  0  0  0  0  0  0  0  0  0
   -3.7779   29.1771    4.9812 N   0  0  0  0  0  0  0  0  0  0  0  0
   -3.0746   29.4402    3.8216 C   0  0  0  0  0  0  0  0  0  0  0  0
   -2.1380   30.4996    3.7694 C   0  0  0  0  0  0  0  0  0  0  0  0
   -1.3936   30.6937    2.6640 N   0  0  0  0  0  4  0  0  0  0  0  0
   -1.4955   29.8894    1.5916 C   0  0  0  0  0  0  0  0  0  0  0  0
   -2.3927   28.8259    1.6347 C   0  0  0  0  0  0  0  0  0  0  0  0
   -3.1367   28.6385    2.7395 N   0  0  0  0  0  4  0  0  0  0  0  0
   -4.2403   26.7498    4.8534 C   0  0  0  0  0  0  0  0  0  0  0  0
   -3.0480   26.3203    5.4680 C   0  0  0  0  0  0  0  0  0  0  0  0
   -2.4892   25.0748    5.1708 C   0  0  0  0  0  0  0  0  0  0  0  0
   -3.1135   24.2302    4.2565 C   0  0  0  0  0  0  0  0  0  0  0  0
   -4.3047   24.6270    3.6599 C   0  0  0  0  0  0  0  0  0  0  0  0
   -5.0744   23.6031    2.5156 Cl  0  0  0  0  0  0  0  0  0  0  0  0
   -4.8737   25.8690    3.9597 C   0  0  0  0  0  0  0  0  0  0  0  0
  2  1  1  6
  2  3  1  0
  3  4  1  0
  4  5  2  0
  5  6  1  0
  6  7  2  0
  7  8  1  0
  8  9  2  0
  2 10  1  0
 10 11  2  0
 11 12  1  0
 12 13  2  0
 13 14  1  0
 14 15  1  0
 14 16  2  0
  9  4  1  0
 16 10  1  0
M  CHG  2   6   1   9   1
M  END
>  <Energy>  (937) 
140.93793416690835

>  <Energy_Delta>  (937) 
2.8971542676193565

>  <std_smi>  (937) 
CC(Nc1cnccn1)c1cccc(Cl)c1

>  <enum_smi>  (937) 
C[C@H](Nc1c[nH+]cc[nH+]1)c1cccc(Cl)c1

>  <enum_code>  (937) 
M

>  <parent_uuid>  (937) 
6620cc01-fc2b-4cc4-81f0-045e40704b17

>  <o3da_score>  (937) 
91.281433978486191

>  <o3da_score_rel>  (937) 
0.36340465148451412

>  <o3da_align>  (937) 
0.52754077246923747

>  <RMSD>  (937) 
9.9025543107210431e-05

>  <CONVERGED>  (937) 
0

>  <ENERGY>  (937) 
140.93793365817015

$$$$
cb474f04-daaa-4d46-a2e3-0dfc4fef4a35
     RDKit          3D

 16 17  0  0  0  0  0  0  0  0999 V2000
   -6.0790   28.5239    4.5868 C   0  0  0  0  0  0  0  0  0  0  0  0
   -4.7561   28.0897    5.2225 C   0  0  2  0  0  0  0  0  0  0  0  0
   -3.7181   29.1110    4.9542 N   0  0  0  0  0  0  0  0  0  0  0  0
   -3.0286   29.3214    3.7942 C   0  0  0  0  0  0  0  0  0  0  0  0
   -3.2192   28.6527    2.5659 C   0  0  0  0  0  0  0  0  0  0  0  0
   -2.4464   28.9488    1.5026 N   0  0  0  0  0  4  0  0  0  0  0  0
   -1.4827   29.8827    1.5632 C   0  0  0  0  0  0  0  0  0  0  0  0
   -1.2846   30.5608    2.7622 C   0  0  0  0  0  0  0  0  0  0  0  0
   -2.0569   30.2589    3.8211 N   0  0  0  0  0  4  0  0  0  0  0  0
   -4.2463   26.6959    4.8976 C   0  0  0  0  0  0  0  0  0  0  0  0
   -3.0842   26.2223    5.5383 C   0  0  0  0  0  0  0  0  0  0  0  0
   -2.5732   24.9515    5.2617 C   0  0  0  0  0  0  0  0  0  0  0  0
   -3.2145   24.1268    4.3410 C   0  0  0  0  0  0  0  0  0  0  0  0
   -4.3748   24.5697    3.7163 C   0  0  0  0  0  0  0  0  0  0  0  0
   -5.1632   23.5706    2.5621 Cl  0  0  0  0  0  0  0  0  0  0  0  0
   -4.8973   25.8357    3.9975 C   0  0  0  0  0  0  0  0  0  0  0  0
  2  1  1  6
  2  3  1  0
  3  4  1  0
  4  5  2  0
  5  6  1  0
  6  7  2  0
  7  8  1  0
  8  9  2  0
  2 10  1  0
 10 11  2  0
 11 12  1  0
 12 13  2  0
 13 14  1  0
 14 15  1  0
 14 16  2  0
  9  4  1  0
 16 10  1  0
M  CHG  2   6   1   9   1
M  END
>  <Energy>  (938) 
141.02582885518441

>  <Energy_Delta>  (938) 
2.9850489558954223

>  <std_smi>  (938) 
CC(Nc1cnccn1)c1cccc(Cl)c1

>  <enum_smi>  (938) 
C[C@H](Nc1c[nH+]cc[nH+]1)c1cccc(Cl)c1

>  <enum_code>  (938) 
M

>  <parent_uuid>  (938) 
6620cc01-fc2b-4cc4-81f0-045e40704b17

>  <o3da_score>  (938) 
87.218144923360356

>  <o3da_score_rel>  (938) 
0.3472281073769044

>  <o3da_align>  (938) 
0.5284829666589137

>  <RMSD>  (938) 
7.3812020187317764e-05

>  <CONVERGED>  (938) 
0

>  <ENERGY>  (938) 
141.0258286966662

$$$$
cb474f04-daaa-4d46-a2e3-0dfc4fef4a35
     RDKit          3D

 16 17  0  0  0  0  0  0  0  0999 V2000
   -5.7351   28.5709    4.5861 C   0  0  0  0  0  0  0  0  0  0  0  0
   -4.3077   28.0247    4.5453 C   0  0  2  0  0  0  0  0  0  0  0  0
   -3.6793   28.4044    3.2692 N   0  0  0  0  0  0  0  0  0  0  0  0
   -2.8955   29.4990    3.0567 C   0  0  0  0  0  0  0  0  0  0  0  0
   -2.6594   30.5458    3.9725 C   0  0  0  0  0  0  0  0  0  0  0  0
   -1.8579   31.5746    3.6311 N   0  0  0  0  0  4  0  0  0  0  0  0
   -1.2637   31.6432    2.4268 C   0  0  0  0  0  0  0  0  0  0  0  0
   -1.4882   30.6199    1.5098 C   0  0  0  0  0  0  0  0  0  0  0  0
   -2.2892   29.5966    1.8552 N   0  0  0  0  0  4  0  0  0  0  0  0
   -4.1864   26.5171    4.6692 C   0  0  0  0  0  0  0  0  0  0  0  0
   -5.1960   25.6308    4.2604 C   0  0  0  0  0  0  0  0  0  0  0  0
   -5.0171   24.2468    4.3598 C   0  0  0  0  0  0  0  0  0  0  0  0
   -3.8246   23.7244    4.8570 C   0  0  0  0  0  0  0  0  0  0  0  0
   -2.8132   24.5892    5.2565 C   0  0  0  0  0  0  0  0  0  0  0  0
   -1.3272   23.9649    5.8528 Cl  0  0  0  0  0  0  0  0  0  0  0  0
   -2.9871   25.9719    5.1652 C   0  0  0  0  0  0  0  0  0  0  0  0
  2  1  1  6
  2  3  1  0
  3  4  1  0
  4  5  2  0
  5  6  1  0
  6  7  2  0
  7  8  1  0
  8  9  2  0
  2 10  1  0
 10 11  2  0
 11 12  1  0
 12 13  2  0
 13 14  1  0
 14 15  1  0
 14 16  2  0
  9  4  1  0
 16 10  1  0
M  CHG  2   6   1   9   1
M  END
>  <Energy>  (939) 
141.31961612611448

>  <Energy_Delta>  (939) 
3.27883622682549

>  <std_smi>  (939) 
CC(Nc1cnccn1)c1cccc(Cl)c1

>  <enum_smi>  (939) 
C[C@H](Nc1c[nH+]cc[nH+]1)c1cccc(Cl)c1

>  <enum_code>  (939) 
M

>  <parent_uuid>  (939) 
6620cc01-fc2b-4cc4-81f0-045e40704b17

>  <o3da_score>  (939) 
88.649822472297004

>  <o3da_score_rel>  (939) 
0.35292782371606873

>  <o3da_align>  (939) 
0.42019994031069147

>  <RMSD>  (939) 
7.4785185576522448e-05

>  <CONVERGED>  (939) 
0

>  <ENERGY>  (939) 
141.3196160886902

$$$$
cb474f04-daaa-4d46-a2e3-0dfc4fef4a35
     RDKit          3D

 16 17  0  0  0  0  0  0  0  0999 V2000
   -5.4921   28.5845    4.7329 C   0  0  0  0  0  0  0  0  0  0  0  0
   -4.0846   27.9898    4.6610 C   0  0  2  0  0  0  0  0  0  0  0  0
   -3.4627   28.3183    3.3673 N   0  0  0  0  0  0  0  0  0  0  0  0
   -2.7970   29.4690    3.0656 C   0  0  0  0  0  0  0  0  0  0  0  0
   -2.6073   30.5721    3.9241 C   0  0  0  0  0  0  0  0  0  0  0  0
   -1.9251   31.6529    3.4956 N   0  0  0  0  0  4  0  0  0  0  0  0
   -1.4066   31.7206    2.2567 C   0  0  0  0  0  0  0  0  0  0  0  0
   -1.5830   30.6400    1.3967 C   0  0  0  0  0  0  0  0  0  0  0  0
   -2.2651   29.5649    1.8291 N   0  0  0  0  0  4  0  0  0  0  0  0
   -4.0608   26.4800    4.8120 C   0  0  0  0  0  0  0  0  0  0  0  0
   -3.0997   25.8752    5.6409 C   0  0  0  0  0  0  0  0  0  0  0  0
   -3.0387   24.4847    5.7717 C   0  0  0  0  0  0  0  0  0  0  0  0
   -3.9289   23.6749    5.0693 C   0  0  0  0  0  0  0  0  0  0  0  0
   -4.8794   24.2589    4.2397 C   0  0  0  0  0  0  0  0  0  0  0  0
   -5.9703   23.2706    3.3525 Cl  0  0  0  0  0  0  0  0  0  0  0  0
   -4.9494   25.6480    4.1076 C   0  0  0  0  0  0  0  0  0  0  0  0
  2  1  1  6
  2  3  1  0
  3  4  1  0
  4  5  2  0
  5  6  1  0
  6  7  2  0
  7  8  1  0
  8  9  2  0
  2 10  1  0
 10 11  2  0
 11 12  1  0
 12 13  2  0
 13 14  1  0
 14 15  1  0
 14 16  2  0
  9  4  1  0
 16 10  1  0
M  CHG  2   6   1   9   1
M  END
>  <Energy>  (940) 
141.87230518189091

>  <Energy_Delta>  (940) 
3.8315252826019162

>  <std_smi>  (940) 
CC(Nc1cnccn1)c1cccc(Cl)c1

>  <enum_smi>  (940) 
C[C@H](Nc1c[nH+]cc[nH+]1)c1cccc(Cl)c1

>  <enum_code>  (940) 
M

>  <parent_uuid>  (940) 
6620cc01-fc2b-4cc4-81f0-045e40704b17

>  <o3da_score>  (940) 
85.092557432084931

>  <o3da_score_rel>  (940) 
0.33876583473503458

>  <o3da_align>  (940) 
0.5124966127836128

>  <RMSD>  (940) 
6.7675608194186357e-05

>  <CONVERGED>  (940) 
0

>  <ENERGY>  (940) 
141.87230516242715

$$$$
cb474f04-daaa-4d46-a2e3-0dfc4fef4a35
     RDKit          3D

 16 17  0  0  0  0  0  0  0  0999 V2000
   -5.6773   28.6804    4.5604 C   0  0  0  0  0  0  0  0  0  0  0  0
   -4.2517   28.1302    4.6356 C   0  0  2  0  0  0  0  0  0  0  0  0
   -3.4844   28.5764    3.4638 N   0  0  0  0  0  0  0  0  0  0  0  0
   -2.8911   29.8023    3.2823 C   0  0  0  0  0  0  0  0  0  0  0  0
   -2.0987   30.0639    2.1410 C   0  0  0  0  0  0  0  0  0  0  0  0
   -1.4604   31.2427    2.0155 N   0  0  0  0  0  4  0  0  0  0  0  0
   -1.5399   32.1941    2.9620 C   0  0  0  0  0  0  0  0  0  0  0  0
   -2.2994   31.9440    4.1032 C   0  0  0  0  0  0  0  0  0  0  0  0
   -2.9353   30.7636    4.2265 N   0  0  0  0  0  4  0  0  0  0  0  0
   -4.1401   26.6183    4.6854 C   0  0  0  0  0  0  0  0  0  0  0  0
   -5.1528   25.7536    4.2399 C   0  0  0  0  0  0  0  0  0  0  0  0
   -4.9808   24.3655    4.2843 C   0  0  0  0  0  0  0  0  0  0  0  0
   -3.7929   23.8172    4.7640 C   0  0  0  0  0  0  0  0  0  0  0  0
   -2.7783   24.6599    5.2002 C   0  0  0  0  0  0  0  0  0  0  0  0
   -1.2990   24.0040    5.7794 Cl  0  0  0  0  0  0  0  0  0  0  0  0
   -2.9453   26.0458    5.1633 C   0  0  0  0  0  0  0  0  0  0  0  0
  2  1  1  6
  2  3  1  0
  3  4  1  0
  4  5  2  0
  5  6  1  0
  6  7  2  0
  7  8  1  0
  8  9  2  0
  2 10  1  0
 10 11  2  0
 11 12  1  0
 12 13  2  0
 13 14  1  0
 14 15  1  0
 14 16  2  0
  9  4  1  0
 16 10  1  0
M  CHG  2   6   1   9   1
M  END
>  <Energy>  (941) 
144.69079956828833

>  <Energy_Delta>  (941) 
6.6500196689993345

>  <std_smi>  (941) 
CC(Nc1cnccn1)c1cccc(Cl)c1

>  <enum_smi>  (941) 
C[C@H](Nc1c[nH+]cc[nH+]1)c1cccc(Cl)c1

>  <enum_code>  (941) 
M

>  <parent_uuid>  (941) 
6620cc01-fc2b-4cc4-81f0-045e40704b17

>  <o3da_score>  (941) 
82.613145077475352

>  <o3da_score_rel>  (941) 
0.32889493390293711

>  <o3da_align>  (941) 
0.43860042090411672

>  <RMSD>  (941) 
8.0207213429672806e-05

>  <CONVERGED>  (941) 
0

>  <ENERGY>  (941) 
144.69079941753068

$$$$
cb474f04-daaa-4d46-a2e3-0dfc4fef4a35
     RDKit          3D

 16 17  0  0  0  0  0  0  0  0999 V2000
   -2.7879   29.2677    3.8314 C   0  0  0  0  0  0  0  0  0  0  0  0
   -3.7112   29.0283    5.0275 C   0  0  2  0  0  0  0  0  0  0  0  0
   -4.6213   27.9002    4.7609 N   0  0  0  0  0  0  0  0  0  0  0  0
   -4.2868   26.5629    4.7999 C   0  0  0  0  0  0  0  0  0  0  0  0
   -5.2368   25.5731    4.4550 C   0  0  0  0  0  0  0  0  0  0  0  0
   -4.8821   24.2747    4.4272 N   0  0  0  0  0  4  0  0  0  0  0  0
   -3.6290   23.8781    4.7092 C   0  0  0  0  0  0  0  0  0  0  0  0
   -2.6762   24.8420    5.0330 C   0  0  0  0  0  0  0  0  0  0  0  0
   -3.0333   26.1402    5.0594 N   0  0  0  0  0  4  0  0  0  0  0  0
   -4.5491   30.2542    5.3373 C   0  0  0  0  0  0  0  0  0  0  0  0
   -4.4651   30.8701    6.5968 C   0  0  0  0  0  0  0  0  0  0  0  0
   -5.2465   31.9899    6.8969 C   0  0  0  0  0  0  0  0  0  0  0  0
   -6.1258   32.5080    5.9473 C   0  0  0  0  0  0  0  0  0  0  0  0
   -6.2190   31.9068    4.6972 C   0  0  0  0  0  0  0  0  0  0  0  0
   -7.3086   32.5267    3.5218 Cl  0  0  0  0  0  0  0  0  0  0  0  0
   -5.4392   30.7904    4.3887 C   0  0  0  0  0  0  0  0  0  0  0  0
  2  1  1  6
  2  3  1  0
  3  4  1  0
  4  5  2  0
  5  6  1  0
  6  7  2  0
  7  8  1  0
  8  9  2  0
  2 10  1  0
 10 11  2  0
 11 12  1  0
 12 13  2  0
 13 14  1  0
 14 15  1  0
 14 16  2  0
  9  4  1  0
 16 10  1  0
M  CHG  2   6   1   9   1
M  END
>  <Energy>  (942) 
144.85152088805916

>  <Energy_Delta>  (942) 
6.8107409887701635

>  <std_smi>  (942) 
CC(Nc1cnccn1)c1cccc(Cl)c1

>  <enum_smi>  (942) 
C[C@H](Nc1c[nH+]cc[nH+]1)c1cccc(Cl)c1

>  <enum_code>  (942) 
M

>  <parent_uuid>  (942) 
6620cc01-fc2b-4cc4-81f0-045e40704b17

>  <o3da_score>  (942) 
70.330957639577804

>  <o3da_score_rel>  (942) 
0.27999776116145059

>  <o3da_align>  (942) 
0.23346627374824422

>  <RMSD>  (942) 
7.5451099388345054e-05

>  <CONVERGED>  (942) 
0

>  <ENERGY>  (942) 
144.85152083667109

$$$$
26c9be1a-1de5-427f-8981-56cd9c785014
     RDKit          3D

 16 17  0  0  0  0  0  0  0  0999 V2000
   -5.8224   28.4534    5.8159 C   0  0  0  0  0  0  0  0  0  0  0  0
   -4.5368   28.2421    5.0101 C   0  0  2  0  0  0  0  0  0  0  0  0
   -4.7031   28.8411    3.6723 N   0  0  0  0  0  0  0  0  0  0  0  0
   -3.5374   29.1809    2.9940 C   0  0  0  0  0  0  0  0  0  0  0  0
   -2.6148   28.2469    2.5272 C   0  0  0  0  0  0  0  0  0  0  0  0
   -1.5467   28.6738    1.8278 N   0  0  0  0  0  4  0  0  0  0  0  0
   -1.3514   29.9781    1.5682 C   0  0  0  0  0  0  0  0  0  0  0  0
   -2.2856   30.8811    2.0401 C   0  0  0  0  0  0  0  0  0  0  0  0
   -3.3719   30.4935    2.7436 N   0  0  0  0  0  0  0  0  0  0  0  0
   -4.2217   26.7595    4.9149 C   0  0  0  0  0  0  0  0  0  0  0  0
   -3.1831   26.2095    5.6844 C   0  0  0  0  0  0  0  0  0  0  0  0
   -2.8845   24.8471    5.6065 C   0  0  0  0  0  0  0  0  0  0  0  0
   -3.6197   24.0169    4.7609 C   0  0  0  0  0  0  0  0  0  0  0  0
   -4.6587   24.5492    4.0023 C   0  0  0  0  0  0  0  0  0  0  0  0
   -5.5572   23.5317    2.9480 Cl  0  0  0  0  0  0  0  0  0  0  0  0
   -4.9659   25.9073    4.0796 C   0  0  0  0  0  0  0  0  0  0  0  0
  2  1  1  1
  2  3  1  0
  3  4  1  0
  4  5  2  0
  5  6  1  0
  6  7  2  0
  7  8  1  0
  8  9  2  0
  2 10  1  0
 10 11  2  0
 11 12  1  0
 12 13  2  0
 13 14  1  0
 14 15  1  0
 14 16  2  0
  9  4  1  0
 16 10  1  0
M  CHG  1   6   1
M  END
>  <Energy>  (943) 
42.463775079108572

>  <Energy_Delta>  (943) 
0

>  <std_smi>  (943) 
CC(Nc1cnccn1)c1cccc(Cl)c1

>  <enum_smi>  (943) 
C[C@H](Nc1c[nH+]ccn1)c1cccc(Cl)c1

>  <enum_code>  (943) 
M

>  <parent_uuid>  (943) 
6620cc01-fc2b-4cc4-81f0-045e40704b17

>  <o3da_score>  (943) 
80.141240433378655

>  <o3da_score_rel>  (943) 
0.31905392235723079

>  <o3da_align>  (943) 
0.60102066547953636

>  <RMSD>  (943) 
6.6990954009185392e-05

>  <CONVERGED>  (943) 
0

>  <ENERGY>  (943) 
42.463775055077711

$$$$
26c9be1a-1de5-427f-8981-56cd9c785014
     RDKit          3D

 16 17  0  0  0  0  0  0  0  0999 V2000
   -2.4462   27.7319    5.8391 C   0  0  0  0  0  0  0  0  0  0  0  0
   -3.4168   28.6902    5.1461 C   0  0  2  0  0  0  0  0  0  0  0  0
   -4.6885   27.9997    4.9124 N   0  0  0  0  0  0  0  0  0  0  0  0
   -5.7260   28.6087    4.2381 C   0  0  0  0  0  0  0  0  0  0  0  0
   -6.1202   29.9298    4.4291 C   0  0  0  0  0  0  0  0  0  0  0  0
   -7.1591   30.4149    3.7234 N   0  0  0  0  0  4  0  0  0  0  0  0
   -7.8318   29.6504    2.8462 C   0  0  0  0  0  0  0  0  0  0  0  0
   -7.4305   28.3383    2.6878 C   0  0  0  0  0  0  0  0  0  0  0  0
   -6.3936   27.8160    3.3767 N   0  0  0  0  0  0  0  0  0  0  0  0
   -2.8253   29.2375    3.8575 C   0  0  0  0  0  0  0  0  0  0  0  0
   -2.6008   28.4168    2.7387 C   0  0  0  0  0  0  0  0  0  0  0  0
   -2.0698   28.9450    1.5594 C   0  0  0  0  0  0  0  0  0  0  0  0
   -1.7564   30.3006    1.4790 C   0  0  0  0  0  0  0  0  0  0  0  0
   -1.9678   31.1215    2.5824 C   0  0  0  0  0  0  0  0  0  0  0  0
   -1.6019   32.7989    2.4873 Cl  0  0  0  0  0  0  0  0  0  0  0  0
   -2.4913   30.5992    3.7666 C   0  0  0  0  0  0  0  0  0  0  0  0
  2  1  1  6
  2  3  1  0
  3  4  1  0
  4  5  2  0
  5  6  1  0
  6  7  2  0
  7  8  1  0
  8  9  2  0
  2 10  1  0
 10 11  2  0
 11 12  1  0
 12 13  2  0
 13 14  1  0
 14 15  1  0
 14 16  2  0
  9  4  1  0
 16 10  1  0
M  CHG  1   6   1
M  END
>  <Energy>  (944) 
43.335710950142897

>  <Energy_Delta>  (944) 
0.87193587103432435

>  <std_smi>  (944) 
CC(Nc1cnccn1)c1cccc(Cl)c1

>  <enum_smi>  (944) 
C[C@H](Nc1c[nH+]ccn1)c1cccc(Cl)c1

>  <enum_code>  (944) 
M

>  <parent_uuid>  (944) 
6620cc01-fc2b-4cc4-81f0-045e40704b17

>  <o3da_score>  (944) 
69.69558053405072

>  <o3da_score_rel>  (944) 
0.27746823258667241

>  <o3da_align>  (944) 
0.44235351451728616

>  <RMSD>  (944) 
6.954960511303655e-05

>  <CONVERGED>  (944) 
0

>  <ENERGY>  (944) 
43.335710922438096

$$$$
26c9be1a-1de5-427f-8981-56cd9c785014
     RDKit          3D

 16 17  0  0  0  0  0  0  0  0999 V2000
   -5.6985   28.7770    4.6044 C   0  0  0  0  0  0  0  0  0  0  0  0
   -4.4881   28.1278    5.2868 C   0  0  2  0  0  0  0  0  0  0  0  0
   -3.2821   28.9746    5.1475 N   0  0  0  0  0  0  0  0  0  0  0  0
   -2.8084   29.2733    3.8784 C   0  0  0  0  0  0  0  0  0  0  0  0
   -2.2408   28.3326    3.0225 C   0  0  0  0  0  0  0  0  0  0  0  0
   -1.7782   28.7305    1.8228 N   0  0  0  0  0  4  0  0  0  0  0  0
   -1.8426   30.0157    1.4355 C   0  0  0  0  0  0  0  0  0  0  0  0
   -2.3971   30.9303    2.3112 C   0  0  0  0  0  0  0  0  0  0  0  0
   -2.8724   30.5711    3.5237 N   0  0  0  0  0  0  0  0  0  0  0  0
   -4.1971   26.6813    4.9191 C   0  0  0  0  0  0  0  0  0  0  0  0
   -3.2793   25.9550    5.7026 C   0  0  0  0  0  0  0  0  0  0  0  0
   -2.9632   24.6285    5.4011 C   0  0  0  0  0  0  0  0  0  0  0  0
   -3.5565   24.0031    4.3071 C   0  0  0  0  0  0  0  0  0  0  0  0
   -4.4687   24.7060    3.5259 C   0  0  0  0  0  0  0  0  0  0  0  0
   -5.1824   23.9503    2.1558 Cl  0  0  0  0  0  0  0  0  0  0  0  0
   -4.7949   26.0311    3.8270 C   0  0  0  0  0  0  0  0  0  0  0  0
  2  1  1  6
  2  3  1  0
  3  4  1  0
  4  5  2  0
  5  6  1  0
  6  7  2  0
  7  8  1  0
  8  9  2  0
  2 10  1  0
 10 11  2  0
 11 12  1  0
 12 13  2  0
 13 14  1  0
 14 15  1  0
 14 16  2  0
  9  4  1  0
 16 10  1  0
M  CHG  1   6   1
M  END
>  <Energy>  (945) 
44.436575436360435

>  <Energy_Delta>  (945) 
1.9728003572518631

>  <std_smi>  (945) 
CC(Nc1cnccn1)c1cccc(Cl)c1

>  <enum_smi>  (945) 
C[C@H](Nc1c[nH+]ccn1)c1cccc(Cl)c1

>  <enum_code>  (945) 
M

>  <parent_uuid>  (945) 
6620cc01-fc2b-4cc4-81f0-045e40704b17

>  <o3da_score>  (945) 
84.779717585307296

>  <o3da_score_rel>  (945) 
0.33752037385067241

>  <o3da_align>  (945) 
0.58486733075978392

>  <RMSD>  (945) 
7.0656422955519941e-05

>  <CONVERGED>  (945) 
0

>  <ENERGY>  (945) 
44.436575422658592

$$$$
26c9be1a-1de5-427f-8981-56cd9c785014
     RDKit          3D

 16 17  0  0  0  0  0  0  0  0999 V2000
   -5.6846   28.7722    4.5333 C   0  0  0  0  0  0  0  0  0  0  0  0
   -4.4700   28.1204    5.2050 C   0  0  2  0  0  0  0  0  0  0  0  0
   -3.2738   28.9782    5.0715 N   0  0  0  0  0  0  0  0  0  0  0  0
   -2.8131   29.3436    3.8179 C   0  0  0  0  0  0  0  0  0  0  0  0
   -2.3327   28.4454    2.8687 C   0  0  0  0  0  0  0  0  0  0  0  0
   -1.8555   28.9157    1.7010 N   0  0  0  0  0  4  0  0  0  0  0  0
   -1.8286   30.2317    1.4306 C   0  0  0  0  0  0  0  0  0  0  0  0
   -2.3047   31.1013    2.3931 C   0  0  0  0  0  0  0  0  0  0  0  0
   -2.7888   30.6690    3.5776 N   0  0  0  0  0  0  0  0  0  0  0  0
   -4.1671   26.6801    4.8201 C   0  0  0  0  0  0  0  0  0  0  0  0
   -4.8932   25.9730    3.8475 C   0  0  0  0  0  0  0  0  0  0  0  0
   -4.5710   24.6482    3.5352 C   0  0  0  0  0  0  0  0  0  0  0  0
   -3.5202   24.0076    4.1894 C   0  0  0  0  0  0  0  0  0  0  0  0
   -2.7986   24.6902    5.1629 C   0  0  0  0  0  0  0  0  0  0  0  0
   -1.4918   23.9124    5.9634 Cl  0  0  0  0  0  0  0  0  0  0  0  0
   -3.1191   26.0096    5.4827 C   0  0  0  0  0  0  0  0  0  0  0  0
  2  1  1  6
  2  3  1  0
  3  4  1  0
  4  5  2  0
  5  6  1  0
  6  7  2  0
  7  8  1  0
  8  9  2  0
  2 10  1  0
 10 11  2  0
 11 12  1  0
 12 13  2  0
 13 14  1  0
 14 15  1  0
 14 16  2  0
  9  4  1  0
 16 10  1  0
M  CHG  1   6   1
M  END
>  <Energy>  (946) 
44.823365368274544

>  <Energy_Delta>  (946) 
2.3595902891659719

>  <std_smi>  (946) 
CC(Nc1cnccn1)c1cccc(Cl)c1

>  <enum_smi>  (946) 
C[C@H](Nc1c[nH+]ccn1)c1cccc(Cl)c1

>  <enum_code>  (946) 
M

>  <parent_uuid>  (946) 
6620cc01-fc2b-4cc4-81f0-045e40704b17

>  <o3da_score>  (946) 
96.510036654311349

>  <o3da_score_rel>  (946) 
0.38422047843139434

>  <o3da_align>  (946) 
0.49263433892176789

>  <RMSD>  (946) 
6.5203013607022443e-05

>  <CONVERGED>  (946) 
0

>  <ENERGY>  (946) 
44.823365364474185

$$$$
26c9be1a-1de5-427f-8981-56cd9c785014
     RDKit          3D

 16 17  0  0  0  0  0  0  0  0999 V2000
   -6.1338   28.2301    5.3420 C   0  0  0  0  0  0  0  0  0  0  0  0
   -4.6617   28.1351    4.9222 C   0  0  2  0  0  0  0  0  0  0  0  0
   -4.4673   28.8999    3.6764 N   0  0  0  0  0  0  0  0  0  0  0  0
   -3.1498   29.2410    3.3497 C   0  0  0  0  0  0  0  0  0  0  0  0
   -2.8779   29.7587    2.0834 C   0  0  0  0  0  0  0  0  0  0  0  0
   -1.6069   30.0388    1.7405 N   0  0  0  0  0  4  0  0  0  0  0  0
   -0.5880   29.8366    2.5931 C   0  0  0  0  0  0  0  0  0  0  0  0
   -0.8810   29.3348    3.8456 C   0  0  0  0  0  0  0  0  0  0  0  0
   -2.1437   29.0442    4.2251 N   0  0  0  0  0  0  0  0  0  0  0  0
   -4.2528   26.6850    4.7096 C   0  0  0  0  0  0  0  0  0  0  0  0
   -4.8802   25.8720    3.7496 C   0  0  0  0  0  0  0  0  0  0  0  0
   -4.4819   24.5458    3.5646 C   0  0  0  0  0  0  0  0  0  0  0  0
   -3.4438   24.0157    4.3290 C   0  0  0  0  0  0  0  0  0  0  0  0
   -2.8087   24.8141    5.2763 C   0  0  0  0  0  0  0  0  0  0  0  0
   -1.5109   24.1722    6.2054 Cl  0  0  0  0  0  0  0  0  0  0  0  0
   -3.2081   26.1364    5.4716 C   0  0  0  0  0  0  0  0  0  0  0  0
  2  1  1  6
  2  3  1  0
  3  4  1  0
  4  5  2  0
  5  6  1  0
  6  7  2  0
  7  8  1  0
  8  9  2  0
  2 10  1  0
 10 11  2  0
 11 12  1  0
 12 13  2  0
 13 14  1  0
 14 15  1  0
 14 16  2  0
  9  4  1  0
 16 10  1  0
M  CHG  1   6   1
M  END
>  <Energy>  (947) 
45.894595026560751

>  <Energy_Delta>  (947) 
3.4308199474521786

>  <std_smi>  (947) 
CC(Nc1cnccn1)c1cccc(Cl)c1

>  <enum_smi>  (947) 
C[C@H](Nc1c[nH+]ccn1)c1cccc(Cl)c1

>  <enum_code>  (947) 
M

>  <parent_uuid>  (947) 
6620cc01-fc2b-4cc4-81f0-045e40704b17

>  <o3da_score>  (947) 
71.436740488359916

>  <o3da_score_rel>  (947) 
0.28440004334814284

>  <o3da_align>  (947) 
0.2931733806860452

>  <RMSD>  (947) 
0.27765125114025979

>  <CONVERGED>  (947) 
0

>  <ENERGY>  (947) 
47.060468858084512

$$$$
26c9be1a-1de5-427f-8981-56cd9c785014
     RDKit          3D

 16 17  0  0  0  0  0  0  0  0999 V2000
   -2.7308   29.1488    3.8420 C   0  0  0  0  0  0  0  0  0  0  0  0
   -3.6225   28.9104    5.0641 C   0  0  2  0  0  0  0  0  0  0  0  0
   -4.6643   27.9098    4.7670 N   0  0  0  0  0  0  0  0  0  0  0  0
   -4.2886   26.5652    4.7943 C   0  0  0  0  0  0  0  0  0  0  0  0
   -5.2265   25.5910    4.4487 C   0  0  0  0  0  0  0  0  0  0  0  0
   -4.8598   24.2964    4.4220 N   0  0  0  0  0  4  0  0  0  0  0  0
   -3.6061   23.9152    4.7193 C   0  0  0  0  0  0  0  0  0  0  0  0
   -2.6934   24.8959    5.0554 C   0  0  0  0  0  0  0  0  0  0  0  0
   -3.0243   26.2049    5.0909 N   0  0  0  0  0  0  0  0  0  0  0  0
   -4.3166   30.2017    5.4805 C   0  0  0  0  0  0  0  0  0  0  0  0
   -4.0577   30.7674    6.7397 C   0  0  0  0  0  0  0  0  0  0  0  0
   -4.6944   31.9461    7.1370 C   0  0  0  0  0  0  0  0  0  0  0  0
   -5.6009   32.5741    6.2839 C   0  0  0  0  0  0  0  0  0  0  0  0
   -5.8666   32.0221    5.0341 C   0  0  0  0  0  0  0  0  0  0  0  0
   -6.9914   32.7862    3.9809 Cl  0  0  0  0  0  0  0  0  0  0  0  0
   -5.2324   30.8470    4.6302 C   0  0  0  0  0  0  0  0  0  0  0  0
  2  1  1  6
  2  3  1  0
  3  4  1  0
  4  5  2  0
  5  6  1  0
  6  7  2  0
  7  8  1  0
  8  9  2  0
  2 10  1  0
 10 11  2  0
 11 12  1  0
 12 13  2  0
 13 14  1  0
 14 15  1  0
 14 16  2  0
  9  4  1  0
 16 10  1  0
M  CHG  1   6   1
M  END
>  <Energy>  (948) 
45.928535096545907

>  <Energy_Delta>  (948) 
3.4647600174373352

>  <std_smi>  (948) 
CC(Nc1cnccn1)c1cccc(Cl)c1

>  <enum_smi>  (948) 
C[C@H](Nc1c[nH+]ccn1)c1cccc(Cl)c1

>  <enum_code>  (948) 
M

>  <parent_uuid>  (948) 
6620cc01-fc2b-4cc4-81f0-045e40704b17

>  <o3da_score>  (948) 
70.477648608097809

>  <o3da_score_rel>  (948) 
0.28058175922072193

>  <o3da_align>  (948) 
0.26309104126565297

>  <RMSD>  (948) 
6.6391762080415492e-05

>  <CONVERGED>  (948) 
0

>  <ENERGY>  (948) 
45.928535086166754

$$$$
26c9be1a-1de5-427f-8981-56cd9c785014
     RDKit          3D

 16 17  0  0  0  0  0  0  0  0999 V2000
   -5.7209   28.5252    4.9593 C   0  0  0  0  0  0  0  0  0  0  0  0
   -4.2889   28.0681    4.6617 C   0  0  2  0  0  0  0  0  0  0  0  0
   -3.8431   28.5525    3.3522 N   0  0  0  0  0  0  0  0  0  0  0  0
   -3.6028   29.8981    3.1615 C   0  0  0  0  0  0  0  0  0  0  0  0
   -2.7360   30.6474    3.9527 C   0  0  0  0  0  0  0  0  0  0  0  0
   -2.5223   31.9416    3.6486 N   0  0  0  0  0  4  0  0  0  0  0  0
   -3.1250   32.5262    2.5985 C   0  0  0  0  0  0  0  0  0  0  0  0
   -3.9768   31.7576    1.8286 C   0  0  0  0  0  0  0  0  0  0  0  0
   -4.2144   30.4562    2.1000 N   0  0  0  0  0  0  0  0  0  0  0  0
   -4.1268   26.5575    4.6714 C   0  0  0  0  0  0  0  0  0  0  0  0
   -5.0548   25.6968    4.0602 C   0  0  0  0  0  0  0  0  0  0  0  0
   -4.8626   24.3120    4.0698 C   0  0  0  0  0  0  0  0  0  0  0  0
   -3.7355   23.7650    4.6799 C   0  0  0  0  0  0  0  0  0  0  0  0
   -2.8009   24.6063    5.2744 C   0  0  0  0  0  0  0  0  0  0  0  0
   -1.3994   23.9425    6.0190 Cl  0  0  0  0  0  0  0  0  0  0  0  0
   -2.9880   25.9898    5.2699 C   0  0  0  0  0  0  0  0  0  0  0  0
  2  1  1  6
  2  3  1  0
  3  4  1  0
  4  5  2  0
  5  6  1  0
  6  7  2  0
  7  8  1  0
  8  9  2  0
  2 10  1  0
 10 11  2  0
 11 12  1  0
 12 13  2  0
 13 14  1  0
 14 15  1  0
 14 16  2  0
  9  4  1  0
 16 10  1  0
M  CHG  1   6   1
M  END
>  <Energy>  (949) 
46.120419911444237

>  <Energy_Delta>  (949) 
3.6566448323356653

>  <std_smi>  (949) 
CC(Nc1cnccn1)c1cccc(Cl)c1

>  <enum_smi>  (949) 
C[C@H](Nc1c[nH+]ccn1)c1cccc(Cl)c1

>  <enum_code>  (949) 
M

>  <parent_uuid>  (949) 
6620cc01-fc2b-4cc4-81f0-045e40704b17

>  <o3da_score>  (949) 
71.22346177619211

>  <o3da_score_rel>  (949) 
0.28355094980648493

>  <o3da_align>  (949) 
0.37139438752985726

>  <RMSD>  (949) 
7.8511060713942074e-05

>  <CONVERGED>  (949) 
0

>  <ENERGY>  (949) 
46.120419888208488

$$$$
26c9be1a-1de5-427f-8981-56cd9c785014
     RDKit          3D

 16 17  0  0  0  0  0  0  0  0999 V2000
   -4.7718   29.6387    5.5659 C   0  0  0  0  0  0  0  0  0  0  0  0
   -3.5429   28.8206    5.1537 C   0  0  2  0  0  0  0  0  0  0  0  0
   -3.0221   29.2888    3.8603 N   0  0  0  0  0  0  0  0  0  0  0  0
   -2.2359   30.4339    3.8359 C   0  0  0  0  0  0  0  0  0  0  0  0
   -1.6706   30.8523    2.6310 C   0  0  0  0  0  0  0  0  0  0  0  0
   -0.8479   31.9173    2.6172 N   0  0  0  0  0  4  0  0  0  0  0  0
   -0.5492   32.5890    3.7420 C   0  0  0  0  0  0  0  0  0  0  0  0
   -1.1107   32.1520    4.9254 C   0  0  0  0  0  0  0  0  0  0  0  0
   -1.9373   31.0854    4.9776 N   0  0  0  0  0  0  0  0  0  0  0  0
   -3.8011   27.3265    4.9986 C   0  0  0  0  0  0  0  0  0  0  0  0
   -5.0724   26.7783    4.7635 C   0  0  0  0  0  0  0  0  0  0  0  0
   -5.2396   25.3983    4.6061 C   0  0  0  0  0  0  0  0  0  0  0  0
   -4.1395   24.5450    4.6705 C   0  0  0  0  0  0  0  0  0  0  0  0
   -2.8727   25.0745    4.8911 C   0  0  0  0  0  0  0  0  0  0  0  0
   -1.5060   24.0322    4.9566 Cl  0  0  0  0  0  0  0  0  0  0  0  0
   -2.7004   26.4494    5.0528 C   0  0  0  0  0  0  0  0  0  0  0  0
  2  1  1  6
  2  3  1  0
  3  4  1  0
  4  5  2  0
  5  6  1  0
  6  7  2  0
  7  8  1  0
  8  9  2  0
  2 10  1  0
 10 11  2  0
 11 12  1  0
 12 13  2  0
 13 14  1  0
 14 15  1  0
 14 16  2  0
  9  4  1  0
 16 10  1  0
M  CHG  1   6   1
M  END
>  <Energy>  (950) 
46.176314693283821

>  <Energy_Delta>  (950) 
3.7125396141752489

>  <std_smi>  (950) 
CC(Nc1cnccn1)c1cccc(Cl)c1

>  <enum_smi>  (950) 
C[C@H](Nc1c[nH+]ccn1)c1cccc(Cl)c1

>  <enum_code>  (950) 
M

>  <parent_uuid>  (950) 
6620cc01-fc2b-4cc4-81f0-045e40704b17

>  <o3da_score>  (950) 
75.761765908987229

>  <o3da_score_rel>  (950) 
0.30161859795602919

>  <o3da_align>  (950) 
0.55390649273275139

>  <RMSD>  (950) 
0.44400190891504582

>  <CONVERGED>  (950) 
0

>  <ENERGY>  (950) 
46.872742997893845

$$$$
26c9be1a-1de5-427f-8981-56cd9c785014
     RDKit          3D

 16 17  0  0  0  0  0  0  0  0999 V2000
   -6.1877   29.7885    4.5175 C   0  0  0  0  0  0  0  0  0  0  0  0
   -5.4994   28.5098    4.0265 C   0  0  2  0  0  0  0  0  0  0  0  0
   -4.8211   27.8655    5.1671 N   0  0  0  0  0  0  0  0  0  0  0  0
   -4.4177   26.5377    4.9900 C   0  0  0  0  0  0  0  0  0  0  0  0
   -3.5761   25.9540    5.9374 C   0  0  0  0  0  0  0  0  0  0  0  0
   -3.1350   24.6970    5.7472 N   0  0  0  0  0  4  0  0  0  0  0  0
   -3.4911   23.9838    4.6654 C   0  0  0  0  0  0  0  0  0  0  0  0
   -4.3344   24.5770    3.7467 C   0  0  0  0  0  0  0  0  0  0  0  0
   -4.7978   25.8352    3.9042 N   0  0  0  0  0  0  0  0  0  0  0  0
   -4.4976   28.8491    2.9328 C   0  0  0  0  0  0  0  0  0  0  0  0
   -4.7695   28.5044    1.5987 C   0  0  0  0  0  0  0  0  0  0  0  0
   -3.8617   28.8124    0.5824 C   0  0  0  0  0  0  0  0  0  0  0  0
   -2.6683   29.4665    0.8855 C   0  0  0  0  0  0  0  0  0  0  0  0
   -2.3890   29.8139    2.2044 C   0  0  0  0  0  0  0  0  0  0  0  0
   -0.9115   30.6074    2.5873 Cl  0  0  0  0  0  0  0  0  0  0  0  0
   -3.2944   29.5157    3.2224 C   0  0  0  0  0  0  0  0  0  0  0  0
  2  1  1  1
  2  3  1  0
  3  4  1  0
  4  5  2  0
  5  6  1  0
  6  7  2  0
  7  8  1  0
  8  9  2  0
  2 10  1  0
 10 11  2  0
 11 12  1  0
 12 13  2  0
 13 14  1  0
 14 15  1  0
 14 16  2  0
  9  4  1  0
 16 10  1  0
M  CHG  1   6   1
M  END
>  <Energy>  (951) 
46.421052698135078

>  <Energy_Delta>  (951) 
3.957277619026506

>  <std_smi>  (951) 
CC(Nc1cnccn1)c1cccc(Cl)c1

>  <enum_smi>  (951) 
C[C@H](Nc1c[nH+]ccn1)c1cccc(Cl)c1

>  <enum_code>  (951) 
M

>  <parent_uuid>  (951) 
6620cc01-fc2b-4cc4-81f0-045e40704b17

>  <o3da_score>  (951) 
74.22256226137678

>  <o3da_score_rel>  (951) 
0.29549080459494548

>  <o3da_align>  (951) 
0.76053731258976376

>  <RMSD>  (951) 
0.36293267127817169

>  <CONVERGED>  (951) 
0

>  <ENERGY>  (951) 
46.924533664556762

$$$$
26c9be1a-1de5-427f-8981-56cd9c785014
     RDKit          3D

 16 17  0  0  0  0  0  0  0  0999 V2000
   -3.0691   26.0828    5.5168 C   0  0  0  0  0  0  0  0  0  0  0  0
   -4.0078   26.6177    4.4303 C   0  0  2  0  0  0  0  0  0  0  0  0
   -4.5964   27.9022    4.8230 N   0  0  0  0  0  0  0  0  0  0  0  0
   -3.7995   29.0259    4.9109 C   0  0  0  0  0  0  0  0  0  0  0  0
   -2.9973   29.4888    3.8717 C   0  0  0  0  0  0  0  0  0  0  0  0
   -2.3007   30.6292    4.0379 N   0  0  0  0  0  4  0  0  0  0  0  0
   -2.3636   31.3314    5.1829 C   0  0  0  0  0  0  0  0  0  0  0  0
   -3.1712   30.8507    6.1955 C   0  0  0  0  0  0  0  0  0  0  0  0
   -3.8865   29.7129    6.0653 N   0  0  0  0  0  0  0  0  0  0  0  0
   -5.1422   25.6537    4.1261 C   0  0  0  0  0  0  0  0  0  0  0  0
   -5.3933   25.2607    2.7999 C   0  0  0  0  0  0  0  0  0  0  0  0
   -6.4378   24.3826    2.4976 C   0  0  0  0  0  0  0  0  0  0  0  0
   -7.2524   23.8884    3.5144 C   0  0  0  0  0  0  0  0  0  0  0  0
   -7.0211   24.2766    4.8303 C   0  0  0  0  0  0  0  0  0  0  0  0
   -8.0282   23.6766    6.0893 Cl  0  0  0  0  0  0  0  0  0  0  0  0
   -5.9785   25.1521    5.1394 C   0  0  0  0  0  0  0  0  0  0  0  0
  2  1  1  1
  2  3  1  0
  3  4  1  0
  4  5  2  0
  5  6  1  0
  6  7  2  0
  7  8  1  0
  8  9  2  0
  2 10  1  0
 10 11  2  0
 11 12  1  0
 12 13  2  0
 13 14  1  0
 14 15  1  0
 14 16  2  0
  9  4  1  0
 16 10  1  0
M  CHG  1   6   1
M  END
>  <Energy>  (952) 
46.48025649183608

>  <Energy_Delta>  (952) 
4.0164814127275079

>  <std_smi>  (952) 
CC(Nc1cnccn1)c1cccc(Cl)c1

>  <enum_smi>  (952) 
C[C@H](Nc1c[nH+]ccn1)c1cccc(Cl)c1

>  <enum_code>  (952) 
M

>  <parent_uuid>  (952) 
6620cc01-fc2b-4cc4-81f0-045e40704b17

>  <o3da_score>  (952) 
61.991607900264782

>  <o3da_score_rel>  (952) 
0.24679759817609714

>  <o3da_align>  (952) 
0.31195262510419774

>  <RMSD>  (952) 
6.3457871686161687e-05

>  <CONVERGED>  (952) 
0

>  <ENERGY>  (952) 
46.480256483494458

$$$$
26c9be1a-1de5-427f-8981-56cd9c785014
     RDKit          3D

 16 17  0  0  0  0  0  0  0  0999 V2000
   -5.6818   28.4201    5.2296 C   0  0  0  0  0  0  0  0  0  0  0  0
   -4.3036   27.9633    4.7439 C   0  0  2  0  0  0  0  0  0  0  0  0
   -4.1035   28.3867    3.3506 N   0  0  0  0  0  0  0  0  0  0  0  0
   -3.2330   29.4352    3.1021 C   0  0  0  0  0  0  0  0  0  0  0  0
   -3.3718   30.7064    3.6523 C   0  0  0  0  0  0  0  0  0  0  0  0
   -2.5066   31.6746    3.2946 N   0  0  0  0  0  4  0  0  0  0  0  0
   -1.5141   31.4428    2.4177 C   0  0  0  0  0  0  0  0  0  0  0  0
   -1.4027   30.1734    1.8845 C   0  0  0  0  0  0  0  0  0  0  0  0
   -2.2524   29.1780    2.2166 N   0  0  0  0  0  0  0  0  0  0  0  0
   -4.1593   26.4521    4.8324 C   0  0  0  0  0  0  0  0  0  0  0  0
   -3.1253   25.8855    5.5960 C   0  0  0  0  0  0  0  0  0  0  0  0
   -2.9760   24.4984    5.6786 C   0  0  0  0  0  0  0  0  0  0  0  0
   -3.8538   23.6577    4.9960 C   0  0  0  0  0  0  0  0  0  0  0  0
   -4.8781   24.2069    4.2306 C   0  0  0  0  0  0  0  0  0  0  0  0
   -5.9587   23.1749    3.3793 Cl  0  0  0  0  0  0  0  0  0  0  0  0
   -5.0334   25.5910    4.1447 C   0  0  0  0  0  0  0  0  0  0  0  0
  2  1  1  6
  2  3  1  0
  3  4  1  0
  4  5  2  0
  5  6  1  0
  6  7  2  0
  7  8  1  0
  8  9  2  0
  2 10  1  0
 10 11  2  0
 11 12  1  0
 12 13  2  0
 13 14  1  0
 14 15  1  0
 14 16  2  0
  9  4  1  0
 16 10  1  0
M  CHG  1   6   1
M  END
>  <Energy>  (953) 
46.746133026410121

>  <Energy_Delta>  (953) 
4.2823579473015485

>  <std_smi>  (953) 
CC(Nc1cnccn1)c1cccc(Cl)c1

>  <enum_smi>  (953) 
C[C@H](Nc1c[nH+]ccn1)c1cccc(Cl)c1

>  <enum_code>  (953) 
M

>  <parent_uuid>  (953) 
6620cc01-fc2b-4cc4-81f0-045e40704b17

>  <o3da_score>  (953) 
84.416062867469549

>  <o3da_score_rel>  (953) 
0.33607261158142854

>  <o3da_align>  (953) 
0.52638106232529192

>  <RMSD>  (953) 
7.657060529327936e-05

>  <CONVERGED>  (953) 
0

>  <ENERGY>  (953) 
46.746132984356201

$$$$
26c9be1a-1de5-427f-8981-56cd9c785014
     RDKit          3D

 16 17  0  0  0  0  0  0  0  0999 V2000
   -3.0596   28.8788    6.3822 C   0  0  0  0  0  0  0  0  0  0  0  0
   -3.5702   28.8984    4.9392 C   0  0  2  0  0  0  0  0  0  0  0  0
   -4.5828   27.8559    4.6707 N   0  0  0  0  0  0  0  0  0  0  0  0
   -4.2599   26.5014    4.7452 C   0  0  0  0  0  0  0  0  0  0  0  0
   -5.2462   25.5534    4.4675 C   0  0  0  0  0  0  0  0  0  0  0  0
   -4.9635   24.2423    4.5792 N   0  0  0  0  0  4  0  0  0  0  0  0
   -3.7486   23.8155    4.9615 C   0  0  0  0  0  0  0  0  0  0  0  0
   -2.7915   24.7664    5.2480 C   0  0  0  0  0  0  0  0  0  0  0  0
   -3.0455   26.0889    5.1523 N   0  0  0  0  0  0  0  0  0  0  0  0
   -2.5293   28.9556    3.8320 C   0  0  0  0  0  0  0  0  0  0  0  0
   -2.8469   29.5915    2.6166 C   0  0  0  0  0  0  0  0  0  0  0  0
   -1.9232   29.6463    1.5694 C   0  0  0  0  0  0  0  0  0  0  0  0
   -0.6685   29.0587    1.7152 C   0  0  0  0  0  0  0  0  0  0  0  0
   -0.3421   28.4236    2.9096 C   0  0  0  0  0  0  0  0  0  0  0  0
    1.1972   27.6758    3.0883 Cl  0  0  0  0  0  0  0  0  0  0  0  0
   -1.2580   28.3751    3.9619 C   0  0  0  0  0  0  0  0  0  0  0  0
  2  1  1  1
  2  3  1  0
  3  4  1  0
  4  5  2  0
  5  6  1  0
  6  7  2  0
  7  8  1  0
  8  9  2  0
  2 10  1  0
 10 11  2  0
 11 12  1  0
 12 13  2  0
 13 14  1  0
 14 15  1  0
 14 16  2  0
  9  4  1  0
 16 10  1  0
M  CHG  1   6   1
M  END
>  <Energy>  (954) 
50.050208356639196

>  <Energy_Delta>  (954) 
7.5864332775306238

>  <std_smi>  (954) 
CC(Nc1cnccn1)c1cccc(Cl)c1

>  <enum_smi>  (954) 
C[C@H](Nc1c[nH+]ccn1)c1cccc(Cl)c1

>  <enum_code>  (954) 
M

>  <parent_uuid>  (954) 
6620cc01-fc2b-4cc4-81f0-045e40704b17

>  <o3da_score>  (954) 
77.137881523947385

>  <o3da_score_rel>  (954) 
0.30709711416311303

>  <o3da_align>  (954) 
0.52806183023214903

>  <RMSD>  (954) 
6.6729948747771837e-05

>  <CONVERGED>  (954) 
0

>  <ENERGY>  (954) 
50.050208330932797

$$$$
26c9be1a-1de5-427f-8981-56cd9c785014
     RDKit          3D

 16 17  0  0  0  0  0  0  0  0999 V2000
   -6.0987   28.5844    4.6312 C   0  0  0  0  0  0  0  0  0  0  0  0
   -4.7797   28.0875    5.2315 C   0  0  2  0  0  0  0  0  0  0  0  0
   -3.7203   29.1131    5.1382 N   0  0  0  0  0  0  0  0  0  0  0  0
   -3.1513   29.4320    3.9076 C   0  0  0  0  0  0  0  0  0  0  0  0
   -2.0112   30.2356    3.8769 C   0  0  0  0  0  0  0  0  0  0  0  0
   -1.4079   30.4909    2.7014 N   0  0  0  0  0  4  0  0  0  0  0  0
   -1.8787   29.9903    1.5470 C   0  0  0  0  0  0  0  0  0  0  0  0
   -3.0111   29.2033    1.5977 C   0  0  0  0  0  0  0  0  0  0  0  0
   -3.6415   28.9286    2.7591 N   0  0  0  0  0  0  0  0  0  0  0  0
   -4.2727   26.7196    4.7960 C   0  0  0  0  0  0  0  0  0  0  0  0
   -4.8706   25.9724    3.7688 C   0  0  0  0  0  0  0  0  0  0  0  0
   -4.3690   24.7176    3.4077 C   0  0  0  0  0  0  0  0  0  0  0  0
   -3.2591   24.1900    4.0647 C   0  0  0  0  0  0  0  0  0  0  0  0
   -2.6560   24.9181    5.0848 C   0  0  0  0  0  0  0  0  0  0  0  0
   -1.2753   24.2838    5.8910 Cl  0  0  0  0  0  0  0  0  0  0  0  0
   -3.1573   26.1663    5.4542 C   0  0  0  0  0  0  0  0  0  0  0  0
  2  1  1  6
  2  3  1  0
  3  4  1  0
  4  5  2  0
  5  6  1  0
  6  7  2  0
  7  8  1  0
  8  9  2  0
  2 10  1  0
 10 11  2  0
 11 12  1  0
 12 13  2  0
 13 14  1  0
 14 15  1  0
 14 16  2  0
  9  4  1  0
 16 10  1  0
M  CHG  1   6   1
M  END
>  <Energy>  (955) 
50.559515654150239

>  <Energy_Delta>  (955) 
8.0957405750416669

>  <std_smi>  (955) 
CC(Nc1cnccn1)c1cccc(Cl)c1

>  <enum_smi>  (955) 
C[C@H](Nc1c[nH+]ccn1)c1cccc(Cl)c1

>  <enum_code>  (955) 
M

>  <parent_uuid>  (955) 
6620cc01-fc2b-4cc4-81f0-045e40704b17

>  <o3da_score>  (955) 
80.219486712830133

>  <o3da_score_rel>  (955) 
0.31936543216458901

>  <o3da_align>  (955) 
0.53072391140300534

>  <RMSD>  (955) 
0.26676739914904374

>  <CONVERGED>  (955) 
0

>  <ENERGY>  (955) 
50.514478035844647

$$$$
e154f2f3-95fc-4406-97b5-314393ef9752
     RDKit          3D

 16 17  0  0  0  0  0  0  0  0999 V2000
   -6.1094   28.2804    5.0879 C   0  0  0  0  0  0  0  0  0  0  0  0
   -4.6714   27.9772    4.6649 C   0  0  2  0  0  0  0  0  0  0  0  0
   -4.4490   28.5990    3.3116 N   0  0  0  0  0  4  0  0  0  0  0  0
   -3.0659   28.5947    2.8917 C   0  0  0  0  0  0  0  0  0  0  0  0
   -2.4653   27.5594    2.1644 C   0  0  0  0  0  0  0  0  0  0  0  0
   -1.1592   27.6816    1.8307 N   0  0  0  0  0  4  0  0  0  0  0  0
   -0.4432   28.7740    2.1695 C   0  0  0  0  0  0  0  0  0  0  0  0
   -1.0899   29.7794    2.8766 C   0  0  0  0  0  0  0  0  0  0  0  0
   -2.3976   29.7005    3.2388 N   0  0  0  0  0  0  0  0  0  0  0  0
   -4.3486   26.4962    4.6536 C   0  0  0  0  0  0  0  0  0  0  0  0
   -5.1648   25.5564    4.0007 C   0  0  0  0  0  0  0  0  0  0  0  0
   -4.7998   24.2077    3.9558 C   0  0  0  0  0  0  0  0  0  0  0  0
   -3.6133   23.7790    4.5490 C   0  0  0  0  0  0  0  0  0  0  0  0
   -2.8000   24.6982    5.2010 C   0  0  0  0  0  0  0  0  0  0  0  0
   -1.3131   24.1956    5.8958 Cl  0  0  0  0  0  0  0  0  0  0  0  0
   -3.1632   26.0452    5.2632 C   0  0  0  0  0  0  0  0  0  0  0  0
  2  1  1  6
  2  3  1  0
  3  4  1  0
  4  5  2  0
  5  6  1  0
  6  7  2  0
  7  8  1  0
  8  9  2  0
  2 10  1  0
 10 11  2  0
 11 12  1  0
 12 13  2  0
 13 14  1  0
 14 15  1  0
 14 16  2  0
  9  4  1  0
 16 10  1  0
M  CHG  2   3   1   6   1
M  END
>  <Energy>  (956) 
86.604873811716402

>  <Energy_Delta>  (956) 
0

>  <std_smi>  (956) 
CC(Nc1cnccn1)c1cccc(Cl)c1

>  <enum_smi>  (956) 
C[C@H]([NH2+]c1c[nH+]ccn1)c1cccc(Cl)c1

>  <enum_code>  (956) 
M

>  <parent_uuid>  (956) 
6620cc01-fc2b-4cc4-81f0-045e40704b17

>  <o3da_score>  (956) 
70.723780819735182

>  <o3da_score_rel>  (956) 
0.28156164731724626

>  <o3da_align>  (956) 
0.39377427122071773

>  <RMSD>  (956) 
7.1779436369643075e-05

>  <CONVERGED>  (956) 
0

>  <ENERGY>  (956) 
86.604873752804252

$$$$
e154f2f3-95fc-4406-97b5-314393ef9752
     RDKit          3D

 16 17  0  0  0  0  0  0  0  0999 V2000
   -4.0888   28.5519    7.1998 C   0  0  0  0  0  0  0  0  0  0  0  0
   -3.0757   28.5591    6.0547 C   0  0  2  0  0  0  0  0  0  0  0  0
   -3.7583   29.1266    4.8393 N   0  0  0  0  0  4  0  0  0  0  0  0
   -2.8617   29.3832    3.7355 C   0  0  0  0  0  0  0  0  0  0  0  0
   -2.5584   28.4543    2.7325 C   0  0  0  0  0  0  0  0  0  0  0  0
   -1.7232   28.8326    1.7368 N   0  0  0  0  0  4  0  0  0  0  0  0
   -1.1966   30.0741    1.6904 C   0  0  0  0  0  0  0  0  0  0  0  0
   -1.5391   30.9618    2.7022 C   0  0  0  0  0  0  0  0  0  0  0  0
   -2.3711   30.6280    3.7237 N   0  0  0  0  0  0  0  0  0  0  0  0
   -2.4917   27.1866    5.7884 C   0  0  0  0  0  0  0  0  0  0  0  0
   -1.1000   26.9971    5.8470 C   0  0  0  0  0  0  0  0  0  0  0  0
   -0.5377   25.7497    5.5641 C   0  0  0  0  0  0  0  0  0  0  0  0
   -1.3538   24.6756    5.2133 C   0  0  0  0  0  0  0  0  0  0  0  0
   -2.7323   24.8481    5.1611 C   0  0  0  0  0  0  0  0  0  0  0  0
   -3.7473   23.5417    4.7028 Cl  0  0  0  0  0  0  0  0  0  0  0  0
   -3.3044   26.0895    5.4510 C   0  0  0  0  0  0  0  0  0  0  0  0
  2  1  1  1
  2  3  1  0
  3  4  1  0
  4  5  2  0
  5  6  1  0
  6  7  2  0
  7  8  1  0
  8  9  2  0
  2 10  1  0
 10 11  2  0
 11 12  1  0
 12 13  2  0
 13 14  1  0
 14 15  1  0
 14 16  2  0
  9  4  1  0
 16 10  1  0
M  CHG  2   3   1   6   1
M  END
>  <Energy>  (957) 
87.107981400807105

>  <Energy_Delta>  (957) 
0.5031075890907033

>  <std_smi>  (957) 
CC(Nc1cnccn1)c1cccc(Cl)c1

>  <enum_smi>  (957) 
C[C@H]([NH2+]c1c[nH+]ccn1)c1cccc(Cl)c1

>  <enum_code>  (957) 
M

>  <parent_uuid>  (957) 
6620cc01-fc2b-4cc4-81f0-045e40704b17

>  <o3da_score>  (957) 
75.581026963499554

>  <o3da_score_rel>  (957) 
0.30089904995341882

>  <o3da_align>  (957) 
0.40982882844777313

>  <RMSD>  (957) 
0.00021775383728101568

>  <CONVERGED>  (957) 
0

>  <ENERGY>  (957) 
87.107981739429562

$$$$
e154f2f3-95fc-4406-97b5-314393ef9752
     RDKit          3D

 16 17  0  0  0  0  0  0  0  0999 V2000
   -2.4151   29.0112    5.7096 C   0  0  0  0  0  0  0  0  0  0  0  0
   -3.6210   29.0789    4.7679 C   0  0  2  0  0  0  0  0  0  0  0  0
   -4.5458   27.9163    5.0234 N   0  0  0  0  0  4  0  0  0  0  0  0
   -4.0527   26.6176    4.6220 C   0  0  0  0  0  0  0  0  0  0  0  0
   -4.1738   26.0900    3.3303 C   0  0  0  0  0  0  0  0  0  0  0  0
   -3.6855   24.8502    3.0923 N   0  0  0  0  0  4  0  0  0  0  0  0
   -3.1114   24.1179    4.0693 C   0  0  0  0  0  0  0  0  0  0  0  0
   -3.0376   24.6760    5.3387 C   0  0  0  0  0  0  0  0  0  0  0  0
   -3.5095   25.9179    5.6249 N   0  0  0  0  0  0  0  0  0  0  0  0
   -3.3113   29.2405    3.2920 C   0  0  0  0  0  0  0  0  0  0  0  0
   -4.2616   29.8506    2.4519 C   0  0  0  0  0  0  0  0  0  0  0  0
   -4.0378   29.9577    1.0765 C   0  0  0  0  0  0  0  0  0  0  0  0
   -2.8689   29.4487    0.5144 C   0  0  0  0  0  0  0  0  0  0  0  0
   -1.9190   28.8494    1.3327 C   0  0  0  0  0  0  0  0  0  0  0  0
   -0.4968   28.1715    0.6499 Cl  0  0  0  0  0  0  0  0  0  0  0  0
   -2.1280   28.7512    2.7113 C   0  0  0  0  0  0  0  0  0  0  0  0
  2  1  1  1
  2  3  1  0
  3  4  1  0
  4  5  2  0
  5  6  1  0
  6  7  2  0
  7  8  1  0
  8  9  2  0
  2 10  1  0
 10 11  2  0
 11 12  1  0
 12 13  2  0
 13 14  1  0
 14 15  1  0
 14 16  2  0
  9  4  1  0
 16 10  1  0
M  CHG  2   3   1   6   1
M  END
>  <Energy>  (958) 
88.499913997634451

>  <Energy_Delta>  (958) 
1.8950401859180488

>  <std_smi>  (958) 
CC(Nc1cnccn1)c1cccc(Cl)c1

>  <enum_smi>  (958) 
C[C@H]([NH2+]c1c[nH+]ccn1)c1cccc(Cl)c1

>  <enum_code>  (958) 
M

>  <parent_uuid>  (958) 
6620cc01-fc2b-4cc4-81f0-045e40704b17

>  <o3da_score>  (958) 
68.251954881758877

>  <o3da_score_rel>  (958) 
0.27172094911204087

>  <o3da_align>  (958) 
0.44511959343101687

>  <RMSD>  (958) 
0.00014141417716262802

>  <CONVERGED>  (958) 
0

>  <ENERGY>  (958) 
88.499913836725341

$$$$
e154f2f3-95fc-4406-97b5-314393ef9752
     RDKit          3D

 16 17  0  0  0  0  0  0  0  0999 V2000
   -6.0092   28.5536    4.9564 C   0  0  0  0  0  0  0  0  0  0  0  0
   -4.6049   28.0714    5.3333 C   0  0  2  0  0  0  0  0  0  0  0  0
   -3.5795   29.0777    4.8765 N   0  0  0  0  0  4  0  0  0  0  0  0
   -3.3811   29.1719    3.4477 C   0  0  0  0  0  0  0  0  0  0  0  0
   -2.5241   28.3455    2.7107 C   0  0  0  0  0  0  0  0  0  0  0  0
   -2.3957   28.5717    1.3824 N   0  0  0  0  0  4  0  0  0  0  0  0
   -3.0581   29.5747    0.7695 C   0  0  0  0  0  0  0  0  0  0  0  0
   -3.8807   30.3783    1.5477 C   0  0  0  0  0  0  0  0  0  0  0  0
   -4.0423   30.1895    2.8837 N   0  0  0  0  0  0  0  0  0  0  0  0
   -4.2386   26.6587    4.9182 C   0  0  0  0  0  0  0  0  0  0  0  0
   -4.9196   25.9580    3.9082 C   0  0  0  0  0  0  0  0  0  0  0  0
   -4.5144   24.6736    3.5309 C   0  0  0  0  0  0  0  0  0  0  0  0
   -3.4214   24.0698    4.1494 C   0  0  0  0  0  0  0  0  0  0  0  0
   -2.7440   24.7456    5.1566 C   0  0  0  0  0  0  0  0  0  0  0  0
   -1.3808   24.0266    5.9117 Cl  0  0  0  0  0  0  0  0  0  0  0  0
   -3.1473   26.0256    5.5455 C   0  0  0  0  0  0  0  0  0  0  0  0
  2  1  1  6
  2  3  1  0
  3  4  1  0
  4  5  2  0
  5  6  1  0
  6  7  2  0
  7  8  1  0
  8  9  2  0
  2 10  1  0
 10 11  2  0
 11 12  1  0
 12 13  2  0
 13 14  1  0
 14 15  1  0
 14 16  2  0
  9  4  1  0
 16 10  1  0
M  CHG  2   3   1   6   1
M  END
>  <Energy>  (959) 
89.251984439821726

>  <Energy_Delta>  (959) 
2.6471106281053238

>  <std_smi>  (959) 
CC(Nc1cnccn1)c1cccc(Cl)c1

>  <enum_smi>  (959) 
C[C@H]([NH2+]c1c[nH+]ccn1)c1cccc(Cl)c1

>  <enum_code>  (959) 
M

>  <parent_uuid>  (959) 
6620cc01-fc2b-4cc4-81f0-045e40704b17

>  <o3da_score>  (959) 
79.570030527192358

>  <o3da_score_rel>  (959) 
0.31677985272625786

>  <o3da_align>  (959) 
0.46554398694235977

>  <RMSD>  (959) 
7.9291295232710184e-05

>  <CONVERGED>  (959) 
0

>  <ENERGY>  (959) 
89.251984322478023

$$$$
e154f2f3-95fc-4406-97b5-314393ef9752
     RDKit          3D

 16 17  0  0  0  0  0  0  0  0999 V2000
   -6.0132   28.2730    5.5916 C   0  0  0  0  0  0  0  0  0  0  0  0
   -4.5316   28.1260    5.2454 C   0  0  2  0  0  0  0  0  0  0  0  0
   -4.2022   29.1413    4.1890 N   0  0  0  0  0  4  0  0  0  0  0  0
   -2.8973   29.0282    3.5798 C   0  0  0  0  0  0  0  0  0  0  0  0
   -1.6776   29.1528    4.2528 C   0  0  0  0  0  0  0  0  0  0  0  0
   -0.5342   29.0061    3.5421 N   0  0  0  0  0  4  0  0  0  0  0  0
   -0.5535   28.7565    2.2159 C   0  0  0  0  0  0  0  0  0  0  0  0
   -1.7898   28.6616    1.5920 C   0  0  0  0  0  0  0  0  0  0  0  0
   -2.9627   28.8031    2.2621 N   0  0  0  0  0  0  0  0  0  0  0  0
   -4.1617   26.7105    4.8535 C   0  0  0  0  0  0  0  0  0  0  0  0
   -4.7670   26.0577    3.7657 C   0  0  0  0  0  0  0  0  0  0  0  0
   -4.3701   24.7686    3.3986 C   0  0  0  0  0  0  0  0  0  0  0  0
   -3.3616   24.1150    4.1045 C   0  0  0  0  0  0  0  0  0  0  0  0
   -2.7613   24.7473    5.1865 C   0  0  0  0  0  0  0  0  0  0  0  0
   -1.4950   23.9707    6.0480 Cl  0  0  0  0  0  0  0  0  0  0  0  0
   -3.1594   26.0307    5.5683 C   0  0  0  0  0  0  0  0  0  0  0  0
  2  1  1  6
  2  3  1  0
  3  4  1  0
  4  5  2  0
  5  6  1  0
  6  7  2  0
  7  8  1  0
  8  9  2  0
  2 10  1  0
 10 11  2  0
 11 12  1  0
 12 13  2  0
 13 14  1  0
 14 15  1  0
 14 16  2  0
  9  4  1  0
 16 10  1  0
M  CHG  2   3   1   6   1
M  END
>  <Energy>  (960) 
90.015984131788827

>  <Energy_Delta>  (960) 
3.4111103200724244

>  <std_smi>  (960) 
CC(Nc1cnccn1)c1cccc(Cl)c1

>  <enum_smi>  (960) 
C[C@H]([NH2+]c1c[nH+]ccn1)c1cccc(Cl)c1

>  <enum_code>  (960) 
M

>  <parent_uuid>  (960) 
6620cc01-fc2b-4cc4-81f0-045e40704b17

>  <o3da_score>  (960) 
74.173926901455516

>  <o3da_score_rel>  (960) 
0.29529718016058154

>  <o3da_align>  (960) 
0.6521773070517467

>  <RMSD>  (960) 
7.3310514705952489e-05

>  <CONVERGED>  (960) 
0

>  <ENERGY>  (960) 
90.015983954073633

$$$$
e154f2f3-95fc-4406-97b5-314393ef9752
     RDKit          3D

 16 17  0  0  0  0  0  0  0  0999 V2000
   -4.9262   30.2468    4.1680 C   0  0  0  0  0  0  0  0  0  0  0  0
   -4.9324   28.7782    3.7461 C   0  0  2  0  0  0  0  0  0  0  0  0
   -4.6339   27.9490    4.9623 N   0  0  0  0  0  4  0  0  0  0  0  0
   -4.3053   26.5616    4.7340 C   0  0  0  0  0  0  0  0  0  0  0  0
   -5.1354   25.6211    4.1167 C   0  0  0  0  0  0  0  0  0  0  0  0
   -4.6707   24.3583    3.9634 N   0  0  0  0  0  4  0  0  0  0  0  0
   -3.4437   23.9986    4.3960 C   0  0  0  0  0  0  0  0  0  0  0  0
   -2.6658   24.9658    5.0168 C   0  0  0  0  0  0  0  0  0  0  0  0
   -3.0902   26.2432    5.1964 N   0  0  0  0  0  0  0  0  0  0  0  0
   -4.0059   28.5266    2.5741 C   0  0  0  0  0  0  0  0  0  0  0  0
   -4.5438   28.2290    1.3096 C   0  0  0  0  0  0  0  0  0  0  0  0
   -3.7062   27.9706    0.2212 C   0  0  0  0  0  0  0  0  0  0  0  0
   -2.3217   28.0039    0.3777 C   0  0  0  0  0  0  0  0  0  0  0  0
   -1.7775   28.3127    1.6191 C   0  0  0  0  0  0  0  0  0  0  0  0
   -0.0736   28.3382    1.8304 Cl  0  0  0  0  0  0  0  0  0  0  0  0
   -2.6072   28.5841    2.7099 C   0  0  0  0  0  0  0  0  0  0  0  0
  2  1  1  1
  2  3  1  0
  3  4  1  0
  4  5  2  0
  5  6  1  0
  6  7  2  0
  7  8  1  0
  8  9  2  0
  2 10  1  0
 10 11  2  0
 11 12  1  0
 12 13  2  0
 13 14  1  0
 14 15  1  0
 14 16  2  0
  9  4  1  0
 16 10  1  0
M  CHG  2   3   1   6   1
M  END
>  <Energy>  (961) 
90.285277088219303

>  <Energy_Delta>  (961) 
3.6804032765029007

>  <std_smi>  (961) 
CC(Nc1cnccn1)c1cccc(Cl)c1

>  <enum_smi>  (961) 
C[C@H]([NH2+]c1c[nH+]ccn1)c1cccc(Cl)c1

>  <enum_code>  (961) 
M

>  <parent_uuid>  (961) 
6620cc01-fc2b-4cc4-81f0-045e40704b17

>  <o3da_score>  (961) 
66.792499852030701

>  <o3da_score_rel>  (961) 
0.26591064658589203

>  <o3da_align>  (961) 
0.33682015103167856

>  <RMSD>  (961) 
6.5799208513114379e-05

>  <CONVERGED>  (961) 
0

>  <ENERGY>  (961) 
90.285276935186033

$$$$
e154f2f3-95fc-4406-97b5-314393ef9752
     RDKit          3D

 16 17  0  0  0  0  0  0  0  0999 V2000
   -5.6866   28.5070    5.0818 C   0  0  0  0  0  0  0  0  0  0  0  0
   -4.2718   28.0581    4.7099 C   0  0  2  0  0  0  0  0  0  0  0  0
   -3.8740   28.6214    3.3781 N   0  0  0  0  0  4  0  0  0  0  0  0
   -3.6287   30.0400    3.3522 C   0  0  0  0  0  0  0  0  0  0  0  0
   -2.4301   30.6402    3.7538 C   0  0  0  0  0  0  0  0  0  0  0  0
   -2.3113   31.9838    3.6316 N   0  0  0  0  0  4  0  0  0  0  0  0
   -3.3115   32.7390    3.1300 C   0  0  0  0  0  0  0  0  0  0  0  0
   -4.4759   32.0933    2.7362 C   0  0  0  0  0  0  0  0  0  0  0  0
   -4.6401   30.7484    2.8382 N   0  0  0  0  0  0  0  0  0  0  0  0
   -4.1119   26.5522    4.6731 C   0  0  0  0  0  0  0  0  0  0  0  0
   -5.0125   25.7221    3.9830 C   0  0  0  0  0  0  0  0  0  0  0  0
   -4.8113   24.3394    3.9316 C   0  0  0  0  0  0  0  0  0  0  0  0
   -3.7072   23.7647    4.5587 C   0  0  0  0  0  0  0  0  0  0  0  0
   -2.8077   24.5745    5.2409 C   0  0  0  0  0  0  0  0  0  0  0  0
   -1.4344   23.8847    6.0082 Cl  0  0  0  0  0  0  0  0  0  0  0  0
   -3.0023   25.9571    5.3001 C   0  0  0  0  0  0  0  0  0  0  0  0
  2  1  1  6
  2  3  1  0
  3  4  1  0
  4  5  2  0
  5  6  1  0
  6  7  2  0
  7  8  1  0
  8  9  2  0
  2 10  1  0
 10 11  2  0
 11 12  1  0
 12 13  2  0
 13 14  1  0
 14 15  1  0
 14 16  2  0
  9  4  1  0
 16 10  1  0
M  CHG  2   3   1   6   1
M  END
>  <Energy>  (962) 
91.886306767034284

>  <Energy_Delta>  (962) 
5.2814329553178823

>  <std_smi>  (962) 
CC(Nc1cnccn1)c1cccc(Cl)c1

>  <enum_smi>  (962) 
C[C@H]([NH2+]c1c[nH+]ccn1)c1cccc(Cl)c1

>  <enum_code>  (962) 
M

>  <parent_uuid>  (962) 
6620cc01-fc2b-4cc4-81f0-045e40704b17

>  <o3da_score>  (962) 
71.146931342418341

>  <o3da_score_rel>  (962) 
0.28324627103007494

>  <o3da_align>  (962) 
0.37811481094569849

>  <RMSD>  (962) 
5.9322643751544183e-05

>  <CONVERGED>  (962) 
0

>  <ENERGY>  (962) 
91.886306749230855

$$$$
e154f2f3-95fc-4406-97b5-314393ef9752
     RDKit          3D

 16 17  0  0  0  0  0  0  0  0999 V2000
   -3.5225   29.8986    6.2160 C   0  0  0  0  0  0  0  0  0  0  0  0
   -3.4579   29.1510    4.8824 C   0  0  2  0  0  0  0  0  0  0  0  0
   -3.7154   30.1013    3.7471 N   0  0  0  0  0  4  0  0  0  0  0  0
   -2.6372   31.0146    3.4661 C   0  0  0  0  0  0  0  0  0  0  0  0
   -2.6113   32.3494    3.8854 C   0  0  0  0  0  0  0  0  0  0  0  0
   -1.5633   33.1216    3.5121 N   0  0  0  0  0  4  0  0  0  0  0  0
   -0.5639   32.6346    2.7469 C   0  0  0  0  0  0  0  0  0  0  0  0
   -0.6419   31.3072    2.3477 C   0  0  0  0  0  0  0  0  0  0  0  0
   -1.6735   30.4947    2.6973 N   0  0  0  0  0  0  0  0  0  0  0  0
   -4.4449   28.0042    4.7955 C   0  0  0  0  0  0  0  0  0  0  0  0
   -4.0257   26.7645    4.2812 C   0  0  0  0  0  0  0  0  0  0  0  0
   -4.9256   25.7029    4.1511 C   0  0  0  0  0  0  0  0  0  0  0  0
   -6.2587   25.8630    4.5235 C   0  0  0  0  0  0  0  0  0  0  0  0
   -6.6876   27.0847    5.0281 C   0  0  0  0  0  0  0  0  0  0  0  0
   -8.3312   27.3028    5.4785 Cl  0  0  0  0  0  0  0  0  0  0  0  0
   -5.7941   28.1514    5.1637 C   0  0  0  0  0  0  0  0  0  0  0  0
  2  1  1  1
  2  3  1  0
  3  4  1  0
  4  5  2  0
  5  6  1  0
  6  7  2  0
  7  8  1  0
  8  9  2  0
  2 10  1  0
 10 11  2  0
 11 12  1  0
 12 13  2  0
 13 14  1  0
 14 15  1  0
 14 16  2  0
  9  4  1  0
 16 10  1  0
M  CHG  2   3   1   6   1
M  END
>  <Energy>  (963) 
91.896513410054595

>  <Energy_Delta>  (963) 
5.2916395983381932

>  <std_smi>  (963) 
CC(Nc1cnccn1)c1cccc(Cl)c1

>  <enum_smi>  (963) 
C[C@H]([NH2+]c1c[nH+]ccn1)c1cccc(Cl)c1

>  <enum_code>  (963) 
M

>  <parent_uuid>  (963) 
6620cc01-fc2b-4cc4-81f0-045e40704b17

>  <o3da_score>  (963) 
69.465809082206988

>  <o3da_score_rel>  (963) 
0.27655347905203753

>  <o3da_align>  (963) 
0.53884645106598428

>  <RMSD>  (963) 
0.00026552873142153142

>  <CONVERGED>  (963) 
0

>  <ENERGY>  (963) 
91.896513982056319

$$$$
e154f2f3-95fc-4406-97b5-314393ef9752
     RDKit          3D

 16 17  0  0  0  0  0  0  0  0999 V2000
   -2.9064   29.6510    5.5798 C   0  0  0  0  0  0  0  0  0  0  0  0
   -3.9512   29.1013    4.6047 C   0  0  2  0  0  0  0  0  0  0  0  0
   -4.6342   27.9242    5.2543 N   0  0  0  0  0  4  0  0  0  0  0  0
   -4.1570   26.6055    4.9087 C   0  0  0  0  0  0  0  0  0  0  0  0
   -2.9324   26.0560    5.2997 C   0  0  0  0  0  0  0  0  0  0  0  0
   -2.6252   24.8059    4.8793 N   0  0  0  0  0  4  0  0  0  0  0  0
   -3.4743   24.0889    4.1139 C   0  0  0  0  0  0  0  0  0  0  0  0
   -4.6885   24.6692    3.7750 C   0  0  0  0  0  0  0  0  0  0  0  0
   -5.0413   25.9183    4.1748 N   0  0  0  0  0  0  0  0  0  0  0  0
   -3.4632   28.8199    3.1959 C   0  0  0  0  0  0  0  0  0  0  0  0
   -4.3974   28.7662    2.1440 C   0  0  0  0  0  0  0  0  0  0  0  0
   -3.9969   28.4502    0.8427 C   0  0  0  0  0  0  0  0  0  0  0  0
   -2.6599   28.1726    0.5684 C   0  0  0  0  0  0  0  0  0  0  0  0
   -1.7256   28.2276    1.5951 C   0  0  0  0  0  0  0  0  0  0  0  0
   -0.0795   27.8463    1.2856 Cl  0  0  0  0  0  0  0  0  0  0  0  0
   -2.1150   28.5574    2.8969 C   0  0  0  0  0  0  0  0  0  0  0  0
  2  1  1  1
  2  3  1  0
  3  4  1  0
  4  5  2  0
  5  6  1  0
  6  7  2  0
  7  8  1  0
  8  9  2  0
  2 10  1  0
 10 11  2  0
 11 12  1  0
 12 13  2  0
 13 14  1  0
 14 15  1  0
 14 16  2  0
  9  4  1  0
 16 10  1  0
M  CHG  2   3   1   6   1
M  END
>  <Energy>  (964) 
92.023770659395154

>  <Energy_Delta>  (964) 
5.4188968476787522

>  <std_smi>  (964) 
CC(Nc1cnccn1)c1cccc(Cl)c1

>  <enum_smi>  (964) 
C[C@H]([NH2+]c1c[nH+]ccn1)c1cccc(Cl)c1

>  <enum_code>  (964) 
M

>  <parent_uuid>  (964) 
6620cc01-fc2b-4cc4-81f0-045e40704b17

>  <o3da_score>  (964) 
76.459964309768694

>  <o3da_score_rel>  (964) 
0.30439822723489035

>  <o3da_align>  (964) 
0.51612528964340598

>  <RMSD>  (964) 
0.00011865822260302477

>  <CONVERGED>  (964) 
0

>  <ENERGY>  (964) 
92.023770359728928

$$$$
e154f2f3-95fc-4406-97b5-314393ef9752
     RDKit          3D

 16 17  0  0  0  0  0  0  0  0999 V2000
   -5.8305   28.5010    4.9137 C   0  0  0  0  0  0  0  0  0  0  0  0
   -4.3820   28.0635    4.6862 C   0  0  2  0  0  0  0  0  0  0  0  0
   -3.8831   28.6215    3.3828 N   0  0  0  0  0  4  0  0  0  0  0  0
   -3.5618   30.0254    3.4115 C   0  0  0  0  0  0  0  0  0  0  0  0
   -4.4046   31.0352    2.9350 C   0  0  0  0  0  0  0  0  0  0  0  0
   -3.9620   32.3147    2.9732 N   0  0  0  0  0  4  0  0  0  0  0  0
   -2.7372   32.6251    3.4479 C   0  0  0  0  0  0  0  0  0  0  0  0
   -1.9349   31.5858    3.8987 C   0  0  0  0  0  0  0  0  0  0  0  0
   -2.3361   30.2878    3.8794 N   0  0  0  0  0  0  0  0  0  0  0  0
   -4.1895   26.5600    4.6790 C   0  0  0  0  0  0  0  0  0  0  0  0
   -5.1058   25.6795    4.0790 C   0  0  0  0  0  0  0  0  0  0  0  0
   -4.8613   24.3026    4.0571 C   0  0  0  0  0  0  0  0  0  0  0  0
   -3.6974   23.7842    4.6220 C   0  0  0  0  0  0  0  0  0  0  0  0
   -2.7791   24.6442    5.2114 C   0  0  0  0  0  0  0  0  0  0  0  0
   -1.3335   24.0223    5.8997 Cl  0  0  0  0  0  0  0  0  0  0  0  0
   -3.0164   26.0206    5.2402 C   0  0  0  0  0  0  0  0  0  0  0  0
  2  1  1  6
  2  3  1  0
  3  4  1  0
  4  5  2  0
  5  6  1  0
  6  7  2  0
  7  8  1  0
  8  9  2  0
  2 10  1  0
 10 11  2  0
 11 12  1  0
 12 13  2  0
 13 14  1  0
 14 15  1  0
 14 16  2  0
  9  4  1  0
 16 10  1  0
M  CHG  2   3   1   6   1
M  END
>  <Energy>  (965) 
92.117559002164498

>  <Energy_Delta>  (965) 
5.5126851904480958

>  <std_smi>  (965) 
CC(Nc1cnccn1)c1cccc(Cl)c1

>  <enum_smi>  (965) 
C[C@H]([NH2+]c1c[nH+]ccn1)c1cccc(Cl)c1

>  <enum_code>  (965) 
M

>  <parent_uuid>  (965) 
6620cc01-fc2b-4cc4-81f0-045e40704b17

>  <o3da_score>  (965) 
71.903612901022314

>  <o3da_score_rel>  (965) 
0.2862587302575893

>  <o3da_align>  (965) 
0.32149830305698723

>  <RMSD>  (965) 
7.4680980744410688e-05

>  <CONVERGED>  (965) 
0

>  <ENERGY>  (965) 
92.117558975267372

$$$$
e154f2f3-95fc-4406-97b5-314393ef9752
     RDKit          3D

 16 17  0  0  0  0  0  0  0  0999 V2000
   -2.8497   27.3456    5.4471 C   0  0  0  0  0  0  0  0  0  0  0  0
   -3.5260   28.5839    4.8553 C   0  0  2  0  0  0  0  0  0  0  0  0
   -4.9039   28.2511    4.3647 N   0  0  0  0  0  4  0  0  0  0  0  0
   -5.8724   27.9444    5.3851 C   0  0  0  0  0  0  0  0  0  0  0  0
   -6.5714   28.9041    6.1251 C   0  0  0  0  0  0  0  0  0  0  0  0
   -7.4949   28.4785    7.0199 N   0  0  0  0  0  4  0  0  0  0  0  0
   -7.7521   27.1656    7.2001 C   0  0  0  0  0  0  0  0  0  0  0  0
   -7.0388   26.2545    6.4332 C   0  0  0  0  0  0  0  0  0  0  0  0
   -6.1048   26.6345    5.5227 N   0  0  0  0  0  0  0  0  0  0  0  0
   -2.7269   29.1941    3.7221 C   0  0  0  0  0  0  0  0  0  0  0  0
   -2.3569   30.5491    3.7709 C   0  0  0  0  0  0  0  0  0  0  0  0
   -1.6470   31.1332    2.7177 C   0  0  0  0  0  0  0  0  0  0  0  0
   -1.2997   30.3773    1.5996 C   0  0  0  0  0  0  0  0  0  0  0  0
   -1.6580   29.0359    1.5396 C   0  0  0  0  0  0  0  0  0  0  0  0
   -1.2442   28.0937    0.1643 Cl  0  0  0  0  0  0  0  0  0  0  0  0
   -2.3654   28.4427    2.5888 C   0  0  0  0  0  0  0  0  0  0  0  0
  2  1  1  6
  2  3  1  0
  3  4  1  0
  4  5  2  0
  5  6  1  0
  6  7  2  0
  7  8  1  0
  8  9  2  0
  2 10  1  0
 10 11  2  0
 11 12  1  0
 12 13  2  0
 13 14  1  0
 14 15  1  0
 14 16  2  0
  9  4  1  0
 16 10  1  0
M  CHG  2   3   1   6   1
M  END
>  <Energy>  (966) 
92.176496854358149

>  <Energy_Delta>  (966) 
5.5716230426417468

>  <std_smi>  (966) 
CC(Nc1cnccn1)c1cccc(Cl)c1

>  <enum_smi>  (966) 
C[C@H]([NH2+]c1c[nH+]ccn1)c1cccc(Cl)c1

>  <enum_code>  (966) 
M

>  <parent_uuid>  (966) 
6620cc01-fc2b-4cc4-81f0-045e40704b17

>  <o3da_score>  (966) 
68.022698709972261

>  <o3da_score_rel>  (966) 
0.27080824698218142

>  <o3da_align>  (966) 
0.57731307853850011

>  <RMSD>  (966) 
7.5458632821481328e-05

>  <CONVERGED>  (966) 
0

>  <ENERGY>  (966) 
92.17649683223334

$$$$
e154f2f3-95fc-4406-97b5-314393ef9752
     RDKit          3D

 16 17  0  0  0  0  0  0  0  0999 V2000
   -6.0439   28.5371    4.7662 C   0  0  0  0  0  0  0  0  0  0  0  0
   -4.6793   28.0608    5.2744 C   0  0  2  0  0  0  0  0  0  0  0  0
   -3.6565   29.0964    4.8735 N   0  0  0  0  0  4  0  0  0  0  0  0
   -2.8188   28.8064    3.7339 C   0  0  0  0  0  0  0  0  0  0  0  0
   -3.2530   28.6889    2.4108 C   0  0  0  0  0  0  0  0  0  0  0  0
   -2.3360   28.3960    1.4582 N   0  0  0  0  0  4  0  0  0  0  0  0
   -1.0312   28.2285    1.7598 C   0  0  0  0  0  0  0  0  0  0  0  0
   -0.6481   28.3764    3.0852 C   0  0  0  0  0  0  0  0  0  0  0  0
   -1.5304   28.6735    4.0739 N   0  0  0  0  0  0  0  0  0  0  0  0
   -4.2926   26.6351    4.9185 C   0  0  0  0  0  0  0  0  0  0  0  0
   -5.0043   25.8549    3.9906 C   0  0  0  0  0  0  0  0  0  0  0  0
   -4.5838   24.5594    3.6712 C   0  0  0  0  0  0  0  0  0  0  0  0
   -3.4451   24.0212    4.2668 C   0  0  0  0  0  0  0  0  0  0  0  0
   -2.7375   24.7735    5.1954 C   0  0  0  0  0  0  0  0  0  0  0  0
   -1.3176   24.1355    5.9193 Cl  0  0  0  0  0  0  0  0  0  0  0  0
   -3.1587   26.0627    5.5299 C   0  0  0  0  0  0  0  0  0  0  0  0
  2  1  1  6
  2  3  1  0
  3  4  1  0
  4  5  2  0
  5  6  1  0
  6  7  2  0
  7  8  1  0
  8  9  2  0
  2 10  1  0
 10 11  2  0
 11 12  1  0
 12 13  2  0
 13 14  1  0
 14 15  1  0
 14 16  2  0
  9  4  1  0
 16 10  1  0
M  CHG  2   3   1   6   1
M  END
>  <Energy>  (967) 
92.529637748100996

>  <Energy_Delta>  (967) 
5.9247639363845934

>  <std_smi>  (967) 
CC(Nc1cnccn1)c1cccc(Cl)c1

>  <enum_smi>  (967) 
C[C@H]([NH2+]c1c[nH+]ccn1)c1cccc(Cl)c1

>  <enum_code>  (967) 
M

>  <parent_uuid>  (967) 
6620cc01-fc2b-4cc4-81f0-045e40704b17

>  <o3da_score>  (967) 
77.451711799061627

>  <o3da_score_rel>  (967) 
0.30834651808658842

>  <o3da_align>  (967) 
0.52463914800353151

>  <RMSD>  (967) 
7.8532778249339606e-05

>  <CONVERGED>  (967) 
0

>  <ENERGY>  (967) 
92.529637516852674

$$$$
1f959757-fe59-44ae-ac04-afd62a7d0b48
     RDKit          3D

 16 17  0  0  0  0  0  0  0  0999 V2000
   -6.2456   28.3358    5.3917 C   0  0  0  0  0  0  0  0  0  0  0  0
   -4.7711   28.1754    5.0232 C   0  0  2  0  0  0  0  0  0  0  0  0
   -4.5011   29.0310    3.8033 N   0  0  0  0  0  4  0  0  0  0  0  0
   -3.0767   29.1139    3.4540 C   0  0  0  0  0  0  0  0  0  0  0  0
   -2.3353   30.2451    3.8108 C   0  0  0  0  0  0  0  0  0  0  0  0
   -1.0243   30.3791    3.5244 N   0  0  0  0  0  0  0  0  0  0  0  0
   -0.4151   29.3731    2.8639 C   0  0  0  0  0  0  0  0  0  0  0  0
   -1.1005   28.2332    2.4861 C   0  0  0  0  0  0  0  0  0  0  0  0
   -2.4156   28.1355    2.7889 N   0  0  0  0  0  4  0  0  0  0  0  0
   -4.3659   26.7379    4.7702 C   0  0  0  0  0  0  0  0  0  0  0  0
   -5.0704   25.9102    3.8783 C   0  0  0  0  0  0  0  0  0  0  0  0
   -4.6213   24.6148    3.6069 C   0  0  0  0  0  0  0  0  0  0  0  0
   -3.4638   24.1290    4.2133 C   0  0  0  0  0  0  0  0  0  0  0  0
   -2.7653   24.9331    5.1056 C   0  0  0  0  0  0  0  0  0  0  0  0
   -1.3177   24.3644    5.8290 Cl  0  0  0  0  0  0  0  0  0  0  0  0
   -3.2109   26.2262    5.3900 C   0  0  0  0  0  0  0  0  0  0  0  0
  2  1  1  6
  2  3  1  0
  3  4  1  0
  4  5  2  0
  5  6  1  0
  6  7  2  0
  7  8  1  0
  8  9  2  0
  2 10  1  0
 10 11  2  0
 11 12  1  0
 12 13  2  0
 13 14  1  0
 14 15  1  0
 14 16  2  0
  9  4  1  0
 16 10  1  0
M  CHG  2   3   1   9   1
M  END
>  <Energy>  (968) 
110.80215088127558

>  <Energy_Delta>  (968) 
0

>  <std_smi>  (968) 
CC(Nc1cnccn1)c1cccc(Cl)c1

>  <enum_smi>  (968) 
C[C@H]([NH2+]c1cncc[nH+]1)c1cccc(Cl)c1

>  <enum_code>  (968) 
M

>  <parent_uuid>  (968) 
6620cc01-fc2b-4cc4-81f0-045e40704b17

>  <o3da_score>  (968) 
75.075298162747856

>  <o3da_score_rel>  (968) 
0.29888567011731582

>  <o3da_align>  (968) 
0.45642668199572811

>  <RMSD>  (968) 
7.1521599977098624e-05

>  <CONVERGED>  (968) 
0

>  <ENERGY>  (968) 
110.80215068461054

$$$$
1f959757-fe59-44ae-ac04-afd62a7d0b48
     RDKit          3D

 16 17  0  0  0  0  0  0  0  0999 V2000
   -4.0854   28.5286    7.2685 C   0  0  0  0  0  0  0  0  0  0  0  0
   -3.0852   28.5806    6.1142 C   0  0  2  0  0  0  0  0  0  0  0  0
   -3.7898   29.1774    4.9146 N   0  0  0  0  0  4  0  0  0  0  0  0
   -2.8908   29.4392    3.7832 C   0  0  0  0  0  0  0  0  0  0  0  0
   -2.4141   30.7347    3.5563 C   0  0  0  0  0  0  0  0  0  0  0  0
   -1.5889   31.0410    2.5343 N   0  0  0  0  0  0  0  0  0  0  0  0
   -1.2197   30.0473    1.7004 C   0  0  0  0  0  0  0  0  0  0  0  0
   -1.6615   28.7492    1.8781 C   0  0  0  0  0  0  0  0  0  0  0  0
   -2.4868   28.4798    2.9157 N   0  0  0  0  0  4  0  0  0  0  0  0
   -2.4942   27.2269    5.7802 C   0  0  0  0  0  0  0  0  0  0  0  0
   -1.0983   27.0659    5.7387 C   0  0  0  0  0  0  0  0  0  0  0  0
   -0.5333   25.8422    5.3704 C   0  0  0  0  0  0  0  0  0  0  0  0
   -1.3500   24.7634    5.0360 C   0  0  0  0  0  0  0  0  0  0  0  0
   -2.7314   24.9055    5.0868 C   0  0  0  0  0  0  0  0  0  0  0  0
   -3.7503   23.5964    4.6494 Cl  0  0  0  0  0  0  0  0  0  0  0  0
   -3.3063   26.1243    5.4581 C   0  0  0  0  0  0  0  0  0  0  0  0
  2  1  1  1
  2  3  1  0
  3  4  1  0
  4  5  2  0
  5  6  1  0
  6  7  2  0
  7  8  1  0
  8  9  2  0
  2 10  1  0
 10 11  2  0
 11 12  1  0
 12 13  2  0
 13 14  1  0
 14 15  1  0
 14 16  2  0
  9  4  1  0
 16 10  1  0
M  CHG  2   3   1   9   1
M  END
>  <Energy>  (969) 
111.06004389338842

>  <Energy_Delta>  (969) 
0.2578930121128451

>  <std_smi>  (969) 
CC(Nc1cnccn1)c1cccc(Cl)c1

>  <enum_smi>  (969) 
C[C@H]([NH2+]c1cncc[nH+]1)c1cccc(Cl)c1

>  <enum_code>  (969) 
M

>  <parent_uuid>  (969) 
6620cc01-fc2b-4cc4-81f0-045e40704b17

>  <o3da_score>  (969) 
77.637409662661454

>  <o3da_score_rel>  (969) 
0.30908580826271359

>  <o3da_align>  (969) 
0.48453283662345942

>  <RMSD>  (969) 
0.00013426543922647754

>  <CONVERGED>  (969) 
0

>  <ENERGY>  (969) 
111.06004406808012

$$$$
1f959757-fe59-44ae-ac04-afd62a7d0b48
     RDKit          3D

 16 17  0  0  0  0  0  0  0  0999 V2000
   -5.5991   28.9328    4.6202 C   0  0  0  0  0  0  0  0  0  0  0  0
   -4.3973   28.1334    5.1280 C   0  0  2  0  0  0  0  0  0  0  0  0
   -3.1805   29.0351    5.2044 N   0  0  0  0  0  4  0  0  0  0  0  0
   -2.6067   29.4255    3.9090 C   0  0  0  0  0  0  0  0  0  0  0  0
   -2.8029   30.7222    3.4205 C   0  0  0  0  0  0  0  0  0  0  0  0
   -2.2964   31.1451    2.2441 N   0  0  0  0  0  0  0  0  0  0  0  0
   -1.5672   30.2721    1.5195 C   0  0  0  0  0  0  0  0  0  0  0  0
   -1.3355   28.9814    1.9576 C   0  0  0  0  0  0  0  0  0  0  0  0
   -1.8568   28.5945    3.1447 N   0  0  0  0  0  4  0  0  0  0  0  0
   -4.0763   26.8460    4.3951 C   0  0  0  0  0  0  0  0  0  0  0  0
   -3.3304   25.8499    5.0537 C   0  0  0  0  0  0  0  0  0  0  0  0
   -2.9462   24.6844    4.3856 C   0  0  0  0  0  0  0  0  0  0  0  0
   -3.2937   24.4944    3.0499 C   0  0  0  0  0  0  0  0  0  0  0  0
   -4.0418   25.4621    2.3908 C   0  0  0  0  0  0  0  0  0  0  0  0
   -4.4401   25.2626    0.7338 Cl  0  0  0  0  0  0  0  0  0  0  0  0
   -4.4383   26.6275    3.0539 C   0  0  0  0  0  0  0  0  0  0  0  0
  2  1  1  6
  2  3  1  0
  3  4  1  0
  4  5  2  0
  5  6  1  0
  6  7  2  0
  7  8  1  0
  8  9  2  0
  2 10  1  0
 10 11  2  0
 11 12  1  0
 12 13  2  0
 13 14  1  0
 14 15  1  0
 14 16  2  0
  9  4  1  0
 16 10  1  0
M  CHG  2   3   1   9   1
M  END
>  <Energy>  (970) 
112.39349554471625

>  <Energy_Delta>  (970) 
1.5913446634406654

>  <std_smi>  (970) 
CC(Nc1cnccn1)c1cccc(Cl)c1

>  <enum_smi>  (970) 
C[C@H]([NH2+]c1cncc[nH+]1)c1cccc(Cl)c1

>  <enum_code>  (970) 
M

>  <parent_uuid>  (970) 
6620cc01-fc2b-4cc4-81f0-045e40704b17

>  <o3da_score>  (970) 
68.834240947026842

>  <o3da_score_rel>  (970) 
0.27403911454163815

>  <o3da_align>  (970) 
0.63642560614141808

>  <RMSD>  (970) 
6.377061919206937e-05

>  <CONVERGED>  (970) 
0

>  <ENERGY>  (970) 
112.39349551380529

$$$$
1f959757-fe59-44ae-ac04-afd62a7d0b48
     RDKit          3D

 16 17  0  0  0  0  0  0  0  0999 V2000
   -6.0149   28.5690    4.9270 C   0  0  0  0  0  0  0  0  0  0  0  0
   -4.6297   28.0785    5.3542 C   0  0  2  0  0  0  0  0  0  0  0  0
   -3.5844   29.0998    4.9499 N   0  0  0  0  0  4  0  0  0  0  0  0
   -3.3152   29.1840    3.5079 C   0  0  0  0  0  0  0  0  0  0  0  0
   -3.7965   30.2720    2.7706 C   0  0  0  0  0  0  0  0  0  0  0  0
   -3.5690   30.4186    1.4491 N   0  0  0  0  0  0  0  0  0  0  0  0
   -2.8376   29.4729    0.8253 C   0  0  0  0  0  0  0  0  0  0  0  0
   -2.3324   28.3806    1.5057 C   0  0  0  0  0  0  0  0  0  0  0  0
   -2.5824   28.2671    2.8304 N   0  0  0  0  0  4  0  0  0  0  0  0
   -4.2322   26.6838    4.9125 C   0  0  0  0  0  0  0  0  0  0  0  0
   -4.8418   26.0213    3.8336 C   0  0  0  0  0  0  0  0  0  0  0  0
   -4.3921   24.7622    3.4234 C   0  0  0  0  0  0  0  0  0  0  0  0
   -3.3290   24.1444    4.0793 C   0  0  0  0  0  0  0  0  0  0  0  0
   -2.7270   24.7790    5.1579 C   0  0  0  0  0  0  0  0  0  0  0  0
   -1.4012   24.0457    5.9619 Cl  0  0  0  0  0  0  0  0  0  0  0  0
   -3.1718   26.0359    5.5770 C   0  0  0  0  0  0  0  0  0  0  0  0
  2  1  1  6
  2  3  1  0
  3  4  1  0
  4  5  2  0
  5  6  1  0
  6  7  2  0
  7  8  1  0
  8  9  2  0
  2 10  1  0
 10 11  2  0
 11 12  1  0
 12 13  2  0
 13 14  1  0
 14 15  1  0
 14 16  2  0
  9  4  1  0
 16 10  1  0
M  CHG  2   3   1   9   1
M  END
>  <Energy>  (971) 
112.76815001519633

>  <Energy_Delta>  (971) 
1.9659991339207465

>  <std_smi>  (971) 
CC(Nc1cnccn1)c1cccc(Cl)c1

>  <enum_smi>  (971) 
C[C@H]([NH2+]c1cncc[nH+]1)c1cccc(Cl)c1

>  <enum_code>  (971) 
M

>  <parent_uuid>  (971) 
6620cc01-fc2b-4cc4-81f0-045e40704b17

>  <o3da_score>  (971) 
78.628658924430596

>  <o3da_score_rel>  (971) 
0.31303211559824906

>  <o3da_align>  (971) 
0.53316323577858571

>  <RMSD>  (971) 
6.6907747002601081e-05

>  <CONVERGED>  (971) 
0

>  <ENERGY>  (971) 
112.76814997168141

$$$$
1f959757-fe59-44ae-ac04-afd62a7d0b48
     RDKit          3D

 16 17  0  0  0  0  0  0  0  0999 V2000
   -6.2607   28.2860    5.4797 C   0  0  0  0  0  0  0  0  0  0  0  0
   -4.7943   28.1661    5.0640 C   0  0  2  0  0  0  0  0  0  0  0  0
   -4.5763   29.0781    3.8753 N   0  0  0  0  0  4  0  0  0  0  0  0
   -3.1816   29.1338    3.4168 C   0  0  0  0  0  0  0  0  0  0  0  0
   -2.7877   28.4152    2.2806 C   0  0  0  0  0  0  0  0  0  0  0  0
   -1.5274   28.4371    1.8005 N   0  0  0  0  0  0  0  0  0  0  0  0
   -0.6158   29.1830    2.4547 C   0  0  0  0  0  0  0  0  0  0  0  0
   -0.9502   29.9143    3.5792 C   0  0  0  0  0  0  0  0  0  0  0  0
   -2.2270   29.8743    4.0292 N   0  0  0  0  0  4  0  0  0  0  0  0
   -4.3677   26.7450    4.7729 C   0  0  0  0  0  0  0  0  0  0  0  0
   -5.0806   25.9167    3.8886 C   0  0  0  0  0  0  0  0  0  0  0  0
   -4.6214   24.6295    3.5937 C   0  0  0  0  0  0  0  0  0  0  0  0
   -3.4463   24.1506    4.1705 C   0  0  0  0  0  0  0  0  0  0  0  0
   -2.7388   24.9553    5.0543 C   0  0  0  0  0  0  0  0  0  0  0  0
   -1.2811   24.3907    5.7640 Cl  0  0  0  0  0  0  0  0  0  0  0  0
   -3.1935   26.2405    5.3610 C   0  0  0  0  0  0  0  0  0  0  0  0
  2  1  1  6
  2  3  1  0
  3  4  1  0
  4  5  2  0
  5  6  1  0
  6  7  2  0
  7  8  1  0
  8  9  2  0
  2 10  1  0
 10 11  2  0
 11 12  1  0
 12 13  2  0
 13 14  1  0
 14 15  1  0
 14 16  2  0
  9  4  1  0
 16 10  1  0
M  CHG  2   3   1   9   1
M  END
>  <Energy>  (972) 
115.27105922376127

>  <Energy_Delta>  (972) 
4.4689083424856904

>  <std_smi>  (972) 
CC(Nc1cnccn1)c1cccc(Cl)c1

>  <enum_smi>  (972) 
C[C@H]([NH2+]c1cncc[nH+]1)c1cccc(Cl)c1

>  <enum_code>  (972) 
M

>  <parent_uuid>  (972) 
6620cc01-fc2b-4cc4-81f0-045e40704b17

>  <o3da_score>  (972) 
76.266153118260803

>  <o3da_score_rel>  (972) 
0.30362663672153006

>  <o3da_align>  (972) 
0.56280369803503205

>  <RMSD>  (972) 
6.6210861264472587e-05

>  <CONVERGED>  (972) 
0

>  <ENERGY>  (972) 
115.27105915977657

$$$$
1f959757-fe59-44ae-ac04-afd62a7d0b48
     RDKit          3D

 16 17  0  0  0  0  0  0  0  0999 V2000
   -4.3805   28.4309    7.1245 C   0  0  0  0  0  0  0  0  0  0  0  0
   -3.2808   28.5335    6.0671 C   0  0  2  0  0  0  0  0  0  0  0  0
   -3.8953   29.1349    4.8203 N   0  0  0  0  0  4  0  0  0  0  0  0
   -2.9193   29.4309    3.7637 C   0  0  0  0  0  0  0  0  0  0  0  0
   -2.7578   28.5498    2.6867 C   0  0  0  0  0  0  0  0  0  0  0  0
   -1.8964   28.7811    1.6744 N   0  0  0  0  0  0  0  0  0  0  0  0
   -1.1656   29.9123    1.7128 C   0  0  0  0  0  0  0  0  0  0  0  0
   -1.2875   30.8183    2.7497 C   0  0  0  0  0  0  0  0  0  0  0  0
   -2.1642   30.5553    3.7478 N   0  0  0  0  0  4  0  0  0  0  0  0
   -2.6073   27.2087    5.7901 C   0  0  0  0  0  0  0  0  0  0  0  0
   -1.2109   27.0935    5.9052 C   0  0  0  0  0  0  0  0  0  0  0  0
   -0.5682   25.8886    5.6072 C   0  0  0  0  0  0  0  0  0  0  0  0
   -1.3061   24.7822    5.1906 C   0  0  0  0  0  0  0  0  0  0  0  0
   -2.6880   24.8787    5.0863 C   0  0  0  0  0  0  0  0  0  0  0  0
   -3.6115   23.5280    4.5666 Cl  0  0  0  0  0  0  0  0  0  0  0  0
   -3.3404   26.0780    5.3861 C   0  0  0  0  0  0  0  0  0  0  0  0
  2  1  1  1
  2  3  1  0
  3  4  1  0
  4  5  2  0
  5  6  1  0
  6  7  2  0
  7  8  1  0
  8  9  2  0
  2 10  1  0
 10 11  2  0
 11 12  1  0
 12 13  2  0
 13 14  1  0
 14 15  1  0
 14 16  2  0
  9  4  1  0
 16 10  1  0
M  CHG  2   3   1   9   1
M  END
>  <Energy>  (973) 
115.83337903526342

>  <Energy_Delta>  (973) 
5.0312281539878398

>  <std_smi>  (973) 
CC(Nc1cnccn1)c1cccc(Cl)c1

>  <enum_smi>  (973) 
C[C@H]([NH2+]c1cncc[nH+]1)c1cccc(Cl)c1

>  <enum_code>  (973) 
M

>  <parent_uuid>  (973) 
6620cc01-fc2b-4cc4-81f0-045e40704b17

>  <o3da_score>  (973) 
73.006626134324449

>  <o3da_score_rel>  (973) 
0.2906499862026421

>  <o3da_align>  (973) 
0.48920358897164429

>  <RMSD>  (973) 
8.3062103999427517e-05

>  <CONVERGED>  (973) 
0

>  <ENERGY>  (973) 
115.83337895643659

$$$$
1f959757-fe59-44ae-ac04-afd62a7d0b48
     RDKit          3D

 16 17  0  0  0  0  0  0  0  0999 V2000
   -4.5547   28.3310    2.2040 C   0  0  0  0  0  0  0  0  0  0  0  0
   -3.7512   28.6455    3.4670 C   0  0  2  0  0  0  0  0  0  0  0  0
   -4.3762   27.9495    4.6560 N   0  0  0  0  0  4  0  0  0  0  0  0
   -4.1880   26.5000    4.6758 C   0  0  0  0  0  0  0  0  0  0  0  0
   -3.0048   25.9576    5.1912 C   0  0  0  0  0  0  0  0  0  0  0  0
   -2.7719   24.6308    5.2461 N   0  0  0  0  0  0  0  0  0  0  0  0
   -3.7330   23.8015    4.7918 C   0  0  0  0  0  0  0  0  0  0  0  0
   -4.9240   24.2830    4.2801 C   0  0  0  0  0  0  0  0  0  0  0  0
   -5.1208   25.6222    4.2357 N   0  0  0  0  0  4  0  0  0  0  0  0
   -3.6576   30.1267    3.7622 C   0  0  0  0  0  0  0  0  0  0  0  0
   -2.4127   30.6965    4.0822 C   0  0  0  0  0  0  0  0  0  0  0  0
   -2.3090   32.0537    4.4010 C   0  0  0  0  0  0  0  0  0  0  0  0
   -3.4439   32.8621    4.4124 C   0  0  0  0  0  0  0  0  0  0  0  0
   -4.6802   32.3116    4.0990 C   0  0  0  0  0  0  0  0  0  0  0  0
   -6.0918   33.2898    4.1193 Cl  0  0  0  0  0  0  0  0  0  0  0  0
   -4.7936   30.9557    3.7764 C   0  0  0  0  0  0  0  0  0  0  0  0
  2  1  1  6
  2  3  1  0
  3  4  1  0
  4  5  2  0
  5  6  1  0
  6  7  2  0
  7  8  1  0
  8  9  2  0
  2 10  1  0
 10 11  2  0
 11 12  1  0
 12 13  2  0
 13 14  1  0
 14 15  1  0
 14 16  2  0
  9  4  1  0
 16 10  1  0
M  CHG  2   3   1   9   1
M  END
>  <Energy>  (974) 
117.15066672249324

>  <Energy_Delta>  (974) 
6.3485158412176617

>  <std_smi>  (974) 
CC(Nc1cnccn1)c1cccc(Cl)c1

>  <enum_smi>  (974) 
C[C@H]([NH2+]c1cncc[nH+]1)c1cccc(Cl)c1

>  <enum_code>  (974) 
M

>  <parent_uuid>  (974) 
6620cc01-fc2b-4cc4-81f0-045e40704b17

>  <o3da_score>  (974) 
65.631700497321461

>  <o3da_score_rel>  (974) 
0.26128933569543228

>  <o3da_align>  (974) 
0.32199251284008673

>  <RMSD>  (974) 
8.6989134985861793e-05

>  <CONVERGED>  (974) 
0

>  <ENERGY>  (974) 
117.15066663762033

$$$$
1f959757-fe59-44ae-ac04-afd62a7d0b48
     RDKit          3D

 16 17  0  0  0  0  0  0  0  0999 V2000
   -6.0187   28.5366    5.0350 C   0  0  0  0  0  0  0  0  0  0  0  0
   -4.5972   28.0706    5.3571 C   0  0  2  0  0  0  0  0  0  0  0  0
   -3.6059   29.1079    4.8624 N   0  0  0  0  0  4  0  0  0  0  0  0
   -3.4404   29.1789    3.4046 C   0  0  0  0  0  0  0  0  0  0  0  0
   -2.4229   28.4509    2.7730 C   0  0  0  0  0  0  0  0  0  0  0  0
   -2.1997   28.5051    1.4433 N   0  0  0  0  0  0  0  0  0  0  0  0
   -2.9942   29.3007    0.7014 C   0  0  0  0  0  0  0  0  0  0  0  0
   -4.0076   30.0470    1.2727 C   0  0  0  0  0  0  0  0  0  0  0  0
   -4.2013   29.9702    2.6106 N   0  0  0  0  0  4  0  0  0  0  0  0
   -4.2268   26.6705    4.9190 C   0  0  0  0  0  0  0  0  0  0  0  0
   -4.8801   25.9948    3.8747 C   0  0  0  0  0  0  0  0  0  0  0  0
   -4.4603   24.7214    3.4756 C   0  0  0  0  0  0  0  0  0  0  0  0
   -3.3848   24.1015    4.1086 C   0  0  0  0  0  0  0  0  0  0  0  0
   -2.7375   24.7506    5.1512 C   0  0  0  0  0  0  0  0  0  0  0  0
   -1.4056   24.0075    5.9386 Cl  0  0  0  0  0  0  0  0  0  0  0  0
   -3.1520   26.0214    5.5590 C   0  0  0  0  0  0  0  0  0  0  0  0
  2  1  1  6
  2  3  1  0
  3  4  1  0
  4  5  2  0
  5  6  1  0
  6  7  2  0
  7  8  1  0
  8  9  2  0
  2 10  1  0
 10 11  2  0
 11 12  1  0
 12 13  2  0
 13 14  1  0
 14 15  1  0
 14 16  2  0
  9  4  1  0
 16 10  1  0
M  CHG  2   3   1   9   1
M  END
>  <Energy>  (975) 
117.30183571986825

>  <Energy_Delta>  (975) 
6.4996848385926711

>  <std_smi>  (975) 
CC(Nc1cnccn1)c1cccc(Cl)c1

>  <enum_smi>  (975) 
C[C@H]([NH2+]c1cncc[nH+]1)c1cccc(Cl)c1

>  <enum_code>  (975) 
M

>  <parent_uuid>  (975) 
6620cc01-fc2b-4cc4-81f0-045e40704b17

>  <o3da_score>  (975) 
79.561175608793988

>  <o3da_score_rel>  (975) 
0.31674460000953081

>  <o3da_align>  (975) 
0.48700061837400405

>  <RMSD>  (975) 
6.3319773419748054e-05

>  <CONVERGED>  (975) 
0

>  <ENERGY>  (975) 
117.30183570047765

$$$$
1f959757-fe59-44ae-ac04-afd62a7d0b48
     RDKit          3D

 16 17  0  0  0  0  0  0  0  0999 V2000
   -5.7728   28.5071    4.9685 C   0  0  0  0  0  0  0  0  0  0  0  0
   -4.3368   28.0543    4.6990 C   0  0  2  0  0  0  0  0  0  0  0  0
   -3.8706   28.6139    3.3730 N   0  0  0  0  0  4  0  0  0  0  0  0
   -3.5845   30.0473    3.3898 C   0  0  0  0  0  0  0  0  0  0  0  0
   -2.3349   30.5033    3.8263 C   0  0  0  0  0  0  0  0  0  0  0  0
   -2.0041   31.8099    3.8588 N   0  0  0  0  0  0  0  0  0  0  0  0
   -2.9216   32.7046    3.4401 C   0  0  0  0  0  0  0  0  0  0  0  0
   -4.1682   32.3087    2.9915 C   0  0  0  0  0  0  0  0  0  0  0  0
   -4.4673   30.9880    2.9776 N   0  0  0  0  0  4  0  0  0  0  0  0
   -4.1604   26.5512    4.6783 C   0  0  0  0  0  0  0  0  0  0  0  0
   -5.0734   25.6916    4.0435 C   0  0  0  0  0  0  0  0  0  0  0  0
   -4.8450   24.3122    4.0053 C   0  0  0  0  0  0  0  0  0  0  0  0
   -3.7018   23.7703    4.5898 C   0  0  0  0  0  0  0  0  0  0  0  0
   -2.7894   24.6087    5.2172 C   0  0  0  0  0  0  0  0  0  0  0  0
   -1.3696   23.9593    5.9319 Cl  0  0  0  0  0  0  0  0  0  0  0  0
   -3.0104   25.9880    5.2627 C   0  0  0  0  0  0  0  0  0  0  0  0
  2  1  1  6
  2  3  1  0
  3  4  1  0
  4  5  2  0
  5  6  1  0
  6  7  2  0
  7  8  1  0
  8  9  2  0
  2 10  1  0
 10 11  2  0
 11 12  1  0
 12 13  2  0
 13 14  1  0
 14 15  1  0
 14 16  2  0
  9  4  1  0
 16 10  1  0
M  CHG  2   3   1   9   1
M  END
>  <Energy>  (976) 
117.48689466768343

>  <Energy_Delta>  (976) 
6.6847437864078501

>  <std_smi>  (976) 
CC(Nc1cnccn1)c1cccc(Cl)c1

>  <enum_smi>  (976) 
C[C@H]([NH2+]c1cncc[nH+]1)c1cccc(Cl)c1

>  <enum_code>  (976) 
M

>  <parent_uuid>  (976) 
6620cc01-fc2b-4cc4-81f0-045e40704b17

>  <o3da_score>  (976) 
72.320940778556121

>  <o3da_score_rel>  (976) 
0.28792017317407209

>  <o3da_align>  (976) 
0.32845282414638466

>  <RMSD>  (976) 
6.9152896844037245e-05

>  <CONVERGED>  (976) 
0

>  <ENERGY>  (976) 
117.48689464667895

$$$$
1f959757-fe59-44ae-ac04-afd62a7d0b48
     RDKit          3D

 16 17  0  0  0  0  0  0  0  0999 V2000
   -3.0830   29.8408    5.7004 C   0  0  0  0  0  0  0  0  0  0  0  0
   -3.3912   28.8769    4.5542 C   0  0  2  0  0  0  0  0  0  0  0  0
   -3.7322   29.6479    3.3005 N   0  0  0  0  0  4  0  0  0  0  0  0
   -2.5814   30.2253    2.6081 C   0  0  0  0  0  0  0  0  0  0  0  0
   -2.2577   31.5744    2.7911 C   0  0  0  0  0  0  0  0  0  0  0  0
   -1.2190   32.1678    2.1689 N   0  0  0  0  0  0  0  0  0  0  0  0
   -0.4751   31.4211    1.3284 C   0  0  0  0  0  0  0  0  0  0  0  0
   -0.7566   30.0863    1.1027 C   0  0  0  0  0  0  0  0  0  0  0  0
   -1.8052   29.5227    1.7484 N   0  0  0  0  0  4  0  0  0  0  0  0
   -4.5246   27.9216    4.8593 C   0  0  0  0  0  0  0  0  0  0  0  0
   -5.7551   28.3621    5.3773 C   0  0  0  0  0  0  0  0  0  0  0  0
   -6.7982   27.4580    5.6011 C   0  0  0  0  0  0  0  0  0  0  0  0
   -6.6346   26.1058    5.3060 C   0  0  0  0  0  0  0  0  0  0  0  0
   -5.4238   25.6579    4.7937 C   0  0  0  0  0  0  0  0  0  0  0  0
   -5.2072   23.9978    4.4118 Cl  0  0  0  0  0  0  0  0  0  0  0  0
   -4.3740   26.5533    4.5700 C   0  0  0  0  0  0  0  0  0  0  0  0
  2  1  1  1
  2  3  1  0
  3  4  1  0
  4  5  2  0
  5  6  1  0
  6  7  2  0
  7  8  1  0
  8  9  2  0
  2 10  1  0
 10 11  2  0
 11 12  1  0
 12 13  2  0
 13 14  1  0
 14 15  1  0
 14 16  2  0
  9  4  1  0
 16 10  1  0
M  CHG  2   3   1   9   1
M  END
>  <Energy>  (977) 
117.67198058072297

>  <Energy_Delta>  (977) 
6.8698296994473935

>  <std_smi>  (977) 
CC(Nc1cnccn1)c1cccc(Cl)c1

>  <enum_smi>  (977) 
C[C@H]([NH2+]c1cncc[nH+]1)c1cccc(Cl)c1

>  <enum_code>  (977) 
M

>  <parent_uuid>  (977) 
6620cc01-fc2b-4cc4-81f0-045e40704b17

>  <o3da_score>  (977) 
68.397594864495645

>  <o3da_score_rel>  (977) 
0.27230076304420525

>  <o3da_align>  (977) 
0.64047366556329244

>  <RMSD>  (977) 
7.065320486374583e-05

>  <CONVERGED>  (977) 
0

>  <ENERGY>  (977) 
117.67198055824765

$$$$
1f959757-fe59-44ae-ac04-afd62a7d0b48
     RDKit          3D

 16 17  0  0  0  0  0  0  0  0999 V2000
   -2.7840   27.8623    5.7799 C   0  0  0  0  0  0  0  0  0  0  0  0
   -3.5672   28.8443    4.9085 C   0  0  2  0  0  0  0  0  0  0  0  0
   -4.8287   28.1941    4.3889 N   0  0  0  0  0  4  0  0  0  0  0  0
   -5.9028   28.0724    5.3733 C   0  0  0  0  0  0  0  0  0  0  0  0
   -6.1068   26.8601    6.0421 C   0  0  0  0  0  0  0  0  0  0  0  0
   -7.0901   26.6811    6.9474 N   0  0  0  0  0  0  0  0  0  0  0  0
   -7.9124   27.7187    7.2012 C   0  0  0  0  0  0  0  0  0  0  0  0
   -7.7629   28.9351    6.5612 C   0  0  0  0  0  0  0  0  0  0  0  0
   -6.7611   29.0800    5.6614 N   0  0  0  0  0  4  0  0  0  0  0  0
   -2.7569   29.3580    3.7382 C   0  0  0  0  0  0  0  0  0  0  0  0
   -2.5833   30.7407    3.5552 C   0  0  0  0  0  0  0  0  0  0  0  0
   -1.8667   31.2308    2.4594 C   0  0  0  0  0  0  0  0  0  0  0  0
   -1.3158   30.3517    1.5289 C   0  0  0  0  0  0  0  0  0  0  0  0
   -1.4752   28.9824    1.7011 C   0  0  0  0  0  0  0  0  0  0  0  0
   -0.8091   27.8854    0.5602 Cl  0  0  0  0  0  0  0  0  0  0  0  0
   -2.1875   28.4825    2.7953 C   0  0  0  0  0  0  0  0  0  0  0  0
  2  1  1  6
  2  3  1  0
  3  4  1  0
  4  5  2  0
  5  6  1  0
  6  7  2  0
  7  8  1  0
  8  9  2  0
  2 10  1  0
 10 11  2  0
 11 12  1  0
 12 13  2  0
 13 14  1  0
 14 15  1  0
 14 16  2  0
  9  4  1  0
 16 10  1  0
M  CHG  2   3   1   9   1
M  END
>  <Energy>  (978) 
117.93569397112147

>  <Energy_Delta>  (978) 
7.1335430898458867

>  <std_smi>  (978) 
CC(Nc1cnccn1)c1cccc(Cl)c1

>  <enum_smi>  (978) 
C[C@H]([NH2+]c1cncc[nH+]1)c1cccc(Cl)c1

>  <enum_code>  (978) 
M

>  <parent_uuid>  (978) 
6620cc01-fc2b-4cc4-81f0-045e40704b17

>  <o3da_score>  (978) 
65.985868937368906

>  <o3da_score_rel>  (978) 
0.26269933171447585

>  <o3da_align>  (978) 
0.41843558202675885

>  <RMSD>  (978) 
8.3271251300521038e-05

>  <CONVERGED>  (978) 
0

>  <ENERGY>  (978) 
117.93569388169098

$$$$
784bdf52-e447-44f7-aefe-940747d461b5
     RDKit          3D

 16 17  0  0  0  0  0  0  0  0999 V2000
   -2.4361   28.1588    5.9937 C   0  0  0  0  0  0  0  0  0  0  0  0
   -3.4660   28.9024    5.1434 C   0  0  2  0  0  0  0  0  0  0  0  0
   -4.6304   28.0400    4.9283 N   0  0  0  0  0  0  0  0  0  0  0  0
   -5.7855   28.4113    4.2633 C   0  0  0  0  0  0  0  0  0  0  0  0
   -6.8928   27.5522    4.1795 C   0  0  0  0  0  0  0  0  0  0  0  0
   -8.0551   27.8779    3.5669 N   0  0  0  0  0  0  0  0  0  0  0  0
   -8.1334   29.1085    3.0285 C   0  0  0  0  0  0  0  0  0  0  0  0
   -7.0848   30.0064    3.0969 C   0  0  0  0  0  0  0  0  0  0  0  0
   -5.9515   29.6325    3.7187 N   0  0  0  0  0  4  0  0  0  0  0  0
   -2.8527   29.3689    3.8358 C   0  0  0  0  0  0  0  0  0  0  0  0
   -2.4492   30.7089    3.6983 C   0  0  0  0  0  0  0  0  0  0  0  0
   -1.8965   31.1685    2.5007 C   0  0  0  0  0  0  0  0  0  0  0  0
   -1.7317   30.2962    1.4261 C   0  0  0  0  0  0  0  0  0  0  0  0
   -2.1067   28.9627    1.5573 C   0  0  0  0  0  0  0  0  0  0  0  0
   -1.9068   27.8814    0.2369 Cl  0  0  0  0  0  0  0  0  0  0  0  0
   -2.6564   28.4954    2.7524 C   0  0  0  0  0  0  0  0  0  0  0  0
  2  1  1  6
  2  3  1  0
  3  4  1  0
  4  5  2  0
  5  6  1  0
  6  7  2  0
  7  8  1  0
  8  9  2  0
  2 10  1  0
 10 11  2  0
 11 12  1  0
 12 13  2  0
 13 14  1  0
 14 15  1  0
 14 16  2  0
  9  4  1  0
 16 10  1  0
M  CHG  1   9   1
M  END
>  <Energy>  (979) 
70.008712868472259

>  <Energy_Delta>  (979) 
0

>  <std_smi>  (979) 
CC(Nc1cnccn1)c1cccc(Cl)c1

>  <enum_smi>  (979) 
C[C@H](Nc1cncc[nH+]1)c1cccc(Cl)c1

>  <enum_code>  (979) 
M

>  <parent_uuid>  (979) 
6620cc01-fc2b-4cc4-81f0-045e40704b17

>  <o3da_score>  (979) 
69.510434514587018

>  <o3da_score_rel>  (979) 
0.27673113938223382

>  <o3da_align>  (979) 
0.33965815570536489

>  <RMSD>  (979) 
0.112063025723923

>  <CONVERGED>  (979) 
0

>  <ENERGY>  (979) 
70.794984616341381

$$$$
784bdf52-e447-44f7-aefe-940747d461b5
     RDKit          3D

 16 17  0  0  0  0  0  0  0  0999 V2000
   -3.5596   27.9986    7.3405 C   0  0  0  0  0  0  0  0  0  0  0  0
   -2.9817   27.8728    5.9309 C   0  0  2  0  0  0  0  0  0  0  0  0
   -3.1165   29.1551    5.2353 N   0  0  0  0  0  0  0  0  0  0  0  0
   -2.6204   29.4272    3.9718 C   0  0  0  0  0  0  0  0  0  0  0  0
   -2.7420   30.7015    3.3947 C   0  0  0  0  0  0  0  0  0  0  0  0
   -2.2478   31.0287    2.1776 N   0  0  0  0  0  0  0  0  0  0  0  0
   -1.5888   30.0635    1.5108 C   0  0  0  0  0  0  0  0  0  0  0  0
   -1.4161   28.7967    2.0362 C   0  0  0  0  0  0  0  0  0  0  0  0
   -1.9289   28.5238    3.2500 N   0  0  0  0  0  4  0  0  0  0  0  0
   -3.6504   26.7447    5.1668 C   0  0  0  0  0  0  0  0  0  0  0  0
   -4.9485   26.8659    4.6428 C   0  0  0  0  0  0  0  0  0  0  0  0
   -5.5314   25.8148    3.9302 C   0  0  0  0  0  0  0  0  0  0  0  0
   -4.8308   24.6256    3.7364 C   0  0  0  0  0  0  0  0  0  0  0  0
   -3.5536   24.4856    4.2687 C   0  0  0  0  0  0  0  0  0  0  0  0
   -2.6781   23.0264    4.0304 Cl  0  0  0  0  0  0  0  0  0  0  0  0
   -2.9655   25.5303    4.9848 C   0  0  0  0  0  0  0  0  0  0  0  0
  2  1  1  1
  2  3  1  0
  3  4  1  0
  4  5  2  0
  5  6  1  0
  6  7  2  0
  7  8  1  0
  8  9  2  0
  2 10  1  0
 10 11  2  0
 11 12  1  0
 12 13  2  0
 13 14  1  0
 14 15  1  0
 14 16  2  0
  9  4  1  0
 16 10  1  0
M  CHG  1   9   1
M  END
>  <Energy>  (980) 
70.150095553965684

>  <Energy_Delta>  (980) 
0.1413826854934257

>  <std_smi>  (980) 
CC(Nc1cnccn1)c1cccc(Cl)c1

>  <enum_smi>  (980) 
C[C@H](Nc1cncc[nH+]1)c1cccc(Cl)c1

>  <enum_code>  (980) 
M

>  <parent_uuid>  (980) 
6620cc01-fc2b-4cc4-81f0-045e40704b17

>  <o3da_score>  (980) 
76.056992864166276

>  <o3da_score_rel>  (980) 
0.30279393935985682

>  <o3da_align>  (980) 
0.63117882744876053

>  <RMSD>  (980) 
0.14483458726189544

>  <CONVERGED>  (980) 
0

>  <ENERGY>  (980) 
70.914334068971428

$$$$
784bdf52-e447-44f7-aefe-940747d461b5
     RDKit          3D

 16 17  0  0  0  0  0  0  0  0999 V2000
   -5.9495   28.4302    5.2399 C   0  0  0  0  0  0  0  0  0  0  0  0
   -4.6811   28.0882    4.4528 C   0  0  2  0  0  0  0  0  0  0  0  0
   -4.8867   28.4383    3.0362 N   0  0  0  0  0  0  0  0  0  0  0  0
   -3.8166   28.4705    2.1649 C   0  0  0  0  0  0  0  0  0  0  0  0
   -2.4956   28.8170    2.4865 C   0  0  0  0  0  0  0  0  0  0  0  0
   -1.4832   28.8482    1.5861 N   0  0  0  0  0  0  0  0  0  0  0  0
   -1.7897   28.5392    0.3134 C   0  0  0  0  0  0  0  0  0  0  0  0
   -3.0760   28.2118   -0.0697 C   0  0  0  0  0  0  0  0  0  0  0  0
   -4.0440   28.1955    0.8643 N   0  0  0  0  0  4  0  0  0  0  0  0
   -4.3234   26.6170    4.5687 C   0  0  0  0  0  0  0  0  0  0  0  0
   -3.0820   26.2377    5.1066 C   0  0  0  0  0  0  0  0  0  0  0  0
   -2.7228   24.8902    5.1963 C   0  0  0  0  0  0  0  0  0  0  0  0
   -3.5963   23.9011    4.7480 C   0  0  0  0  0  0  0  0  0  0  0  0
   -4.8301   24.2634    4.2178 C   0  0  0  0  0  0  0  0  0  0  0  0
   -5.9098   23.0527    3.6479 Cl  0  0  0  0  0  0  0  0  0  0  0  0
   -5.1980   25.6074    4.1299 C   0  0  0  0  0  0  0  0  0  0  0  0
  2  1  1  1
  2  3  1  0
  3  4  1  0
  4  5  2  0
  5  6  1  0
  6  7  2  0
  7  8  1  0
  8  9  2  0
  2 10  1  0
 10 11  2  0
 11 12  1  0
 12 13  2  0
 13 14  1  0
 14 15  1  0
 14 16  2  0
  9  4  1  0
 16 10  1  0
M  CHG  1   9   1
M  END
>  <Energy>  (981) 
70.266732367722369

>  <Energy_Delta>  (981) 
0.25801949925011058

>  <std_smi>  (981) 
CC(Nc1cnccn1)c1cccc(Cl)c1

>  <enum_smi>  (981) 
C[C@H](Nc1cncc[nH+]1)c1cccc(Cl)c1

>  <enum_code>  (981) 
M

>  <parent_uuid>  (981) 
6620cc01-fc2b-4cc4-81f0-045e40704b17

>  <o3da_score>  (981) 
71.381895087370594

>  <o3da_score_rel>  (981) 
0.28418169583799363

>  <o3da_align>  (981) 
0.31722738736826478

>  <RMSD>  (981) 
7.0001741166308255e-05

>  <CONVERGED>  (981) 
0

>  <ENERGY>  (981) 
70.266732325877967

$$$$
784bdf52-e447-44f7-aefe-940747d461b5
     RDKit          3D

 16 17  0  0  0  0  0  0  0  0999 V2000
   -5.5297   30.0712    4.3183 C   0  0  0  0  0  0  0  0  0  0  0  0
   -4.7343   28.8464    3.8565 C   0  0  2  0  0  0  0  0  0  0  0  0
   -4.5055   27.9664    5.0179 N   0  0  0  0  0  0  0  0  0  0  0  0
   -4.2093   26.6330    4.7982 C   0  0  0  0  0  0  0  0  0  0  0  0
   -4.8179   25.8056    3.8427 C   0  0  0  0  0  0  0  0  0  0  0  0
   -4.5007   24.5007    3.6656 N   0  0  0  0  0  0  0  0  0  0  0  0
   -3.5592   23.9864    4.4772 C   0  0  0  0  0  0  0  0  0  0  0  0
   -2.9435   24.7439    5.4551 C   0  0  0  0  0  0  0  0  0  0  0  0
   -3.2934   26.0363    5.5874 N   0  0  0  0  0  4  0  0  0  0  0  0
   -3.3883   29.1981    3.2438 C   0  0  0  0  0  0  0  0  0  0  0  0
   -2.5111   30.1211    3.8396 C   0  0  0  0  0  0  0  0  0  0  0  0
   -1.2634   30.3927    3.2708 C   0  0  0  0  0  0  0  0  0  0  0  0
   -0.8675   29.7398    2.1051 C   0  0  0  0  0  0  0  0  0  0  0  0
   -1.7233   28.8202    1.5082 C   0  0  0  0  0  0  0  0  0  0  0  0
   -1.2358   27.9967    0.0802 Cl  0  0  0  0  0  0  0  0  0  0  0  0
   -2.9736   28.5488    2.0672 C   0  0  0  0  0  0  0  0  0  0  0  0
  2  1  1  1
  2  3  1  0
  3  4  1  0
  4  5  2  0
  5  6  1  0
  6  7  2  0
  7  8  1  0
  8  9  2  0
  2 10  1  0
 10 11  2  0
 11 12  1  0
 12 13  2  0
 13 14  1  0
 14 15  1  0
 14 16  2  0
  9  4  1  0
 16 10  1  0
M  CHG  1   9   1
M  END
>  <Energy>  (982) 
70.711953918931513

>  <Energy_Delta>  (982) 
0.70324105045925478

>  <std_smi>  (982) 
CC(Nc1cnccn1)c1cccc(Cl)c1

>  <enum_smi>  (982) 
C[C@H](Nc1cncc[nH+]1)c1cccc(Cl)c1

>  <enum_code>  (982) 
M

>  <parent_uuid>  (982) 
6620cc01-fc2b-4cc4-81f0-045e40704b17

>  <o3da_score>  (982) 
74.815319524797886

>  <o3da_score_rel>  (982) 
0.29785065738581235

>  <o3da_align>  (982) 
0.50121427963567033

>  <RMSD>  (982) 
0.00011156155362136025

>  <CONVERGED>  (982) 
0

>  <ENERGY>  (982) 
70.711953812033485

$$$$
784bdf52-e447-44f7-aefe-940747d461b5
     RDKit          3D

 16 17  0  0  0  0  0  0  0  0999 V2000
   -5.6557   28.5513    4.5422 C   0  0  0  0  0  0  0  0  0  0  0  0
   -4.2336   27.9874    4.5143 C   0  0  2  0  0  0  0  0  0  0  0  0
   -3.5904   28.3394    3.2446 N   0  0  0  0  0  0  0  0  0  0  0  0
   -2.8806   29.4875    3.0319 C   0  0  0  0  0  0  0  0  0  0  0  0
   -2.7256   30.5597    3.9216 C   0  0  0  0  0  0  0  0  0  0  0  0
   -2.0024   31.6717    3.6433 N   0  0  0  0  0  0  0  0  0  0  0  0
   -1.4080   31.7288    2.4379 C   0  0  0  0  0  0  0  0  0  0  0  0
   -1.5250   30.7054    1.5177 C   0  0  0  0  0  0  0  0  0  0  0  0
   -2.2554   29.6245    1.8449 N   0  0  0  0  0  4  0  0  0  0  0  0
   -4.1442   26.4758    4.6560 C   0  0  0  0  0  0  0  0  0  0  0  0
   -5.1632   25.6046    4.2374 C   0  0  0  0  0  0  0  0  0  0  0  0
   -5.0149   24.2191    4.3576 C   0  0  0  0  0  0  0  0  0  0  0  0
   -3.8431   23.6809    4.8862 C   0  0  0  0  0  0  0  0  0  0  0  0
   -2.8209   24.5308    5.2935 C   0  0  0  0  0  0  0  0  0  0  0  0
   -1.3631   23.8780    5.9298 Cl  0  0  0  0  0  0  0  0  0  0  0  0
   -2.9641   25.9147    5.1799 C   0  0  0  0  0  0  0  0  0  0  0  0
  2  1  1  6
  2  3  1  0
  3  4  1  0
  4  5  2  0
  5  6  1  0
  6  7  2  0
  7  8  1  0
  8  9  2  0
  2 10  1  0
 10 11  2  0
 11 12  1  0
 12 13  2  0
 13 14  1  0
 14 15  1  0
 14 16  2  0
  9  4  1  0
 16 10  1  0
M  CHG  1   9   1
M  END
>  <Energy>  (983) 
71.389543234073841

>  <Energy_Delta>  (983) 
1.3808303656015823

>  <std_smi>  (983) 
CC(Nc1cnccn1)c1cccc(Cl)c1

>  <enum_smi>  (983) 
C[C@H](Nc1cncc[nH+]1)c1cccc(Cl)c1

>  <enum_code>  (983) 
M

>  <parent_uuid>  (983) 
6620cc01-fc2b-4cc4-81f0-045e40704b17

>  <o3da_score>  (983) 
87.031894505050488

>  <o3da_score_rel>  (983) 
0.34648661740019465

>  <o3da_align>  (983) 
0.45397230239242409

>  <RMSD>  (983) 
6.399307448130877e-05

>  <CONVERGED>  (983) 
0

>  <ENERGY>  (983) 
71.389543223719286

$$$$
784bdf52-e447-44f7-aefe-940747d461b5
     RDKit          3D

 16 17  0  0  0  0  0  0  0  0999 V2000
   -5.4991   28.5803    4.6670 C   0  0  0  0  0  0  0  0  0  0  0  0
   -4.0885   27.9896    4.6090 C   0  0  2  0  0  0  0  0  0  0  0  0
   -3.4623   28.3041    3.3213 N   0  0  0  0  0  0  0  0  0  0  0  0
   -2.7962   29.4660    3.0498 C   0  0  0  0  0  0  0  0  0  0  0  0
   -2.6197   30.5579    3.9111 C   0  0  0  0  0  0  0  0  0  0  0  0
   -1.9422   31.6824    3.5741 N   0  0  0  0  0  0  0  0  0  0  0  0
   -1.4171   31.7321    2.3366 C   0  0  0  0  0  0  0  0  0  0  0  0
   -1.5567   30.6886    1.4425 C   0  0  0  0  0  0  0  0  0  0  0  0
   -2.2388   29.5957    1.8285 N   0  0  0  0  0  4  0  0  0  0  0  0
   -4.0601   26.4784    4.7739 C   0  0  0  0  0  0  0  0  0  0  0  0
   -3.0606   25.8866    5.5665 C   0  0  0  0  0  0  0  0  0  0  0  0
   -2.9888   24.4987    5.7135 C   0  0  0  0  0  0  0  0  0  0  0  0
   -3.9074   23.6783    5.0621 C   0  0  0  0  0  0  0  0  0  0  0  0
   -4.8942   24.2496    4.2652 C   0  0  0  0  0  0  0  0  0  0  0  0
   -6.0200   23.2434    3.4418 Cl  0  0  0  0  0  0  0  0  0  0  0  0
   -4.9738   25.6362    4.1165 C   0  0  0  0  0  0  0  0  0  0  0  0
  2  1  1  6
  2  3  1  0
  3  4  1  0
  4  5  2  0
  5  6  1  0
  6  7  2  0
  7  8  1  0
  8  9  2  0
  2 10  1  0
 10 11  2  0
 11 12  1  0
 12 13  2  0
 13 14  1  0
 14 15  1  0
 14 16  2  0
  9  4  1  0
 16 10  1  0
M  CHG  1   9   1
M  END
>  <Energy>  (984) 
71.496931235702945

>  <Energy_Delta>  (984) 
1.4882183672306866

>  <std_smi>  (984) 
CC(Nc1cnccn1)c1cccc(Cl)c1

>  <enum_smi>  (984) 
C[C@H](Nc1cncc[nH+]1)c1cccc(Cl)c1

>  <enum_code>  (984) 
M

>  <parent_uuid>  (984) 
6620cc01-fc2b-4cc4-81f0-045e40704b17

>  <o3da_score>  (984) 
85.367817821719285

>  <o3da_score_rel>  (984) 
0.33986168634036917

>  <o3da_align>  (984) 
0.49958405490567798

>  <RMSD>  (984) 
7.4026569229279678e-05

>  <CONVERGED>  (984) 
0

>  <ENERGY>  (984) 
71.496931218214101

$$$$
784bdf52-e447-44f7-aefe-940747d461b5
     RDKit          3D

 16 17  0  0  0  0  0  0  0  0999 V2000
   -6.1079   28.5106    4.6251 C   0  0  0  0  0  0  0  0  0  0  0  0
   -4.8057   28.0332    5.2767 C   0  0  2  0  0  0  0  0  0  0  0  0
   -3.7513   29.0155    4.9921 N   0  0  0  0  0  0  0  0  0  0  0  0
   -3.0616   29.1952    3.8092 C   0  0  0  0  0  0  0  0  0  0  0  0
   -2.1549   30.2549    3.6425 C   0  0  0  0  0  0  0  0  0  0  0  0
   -1.4756   30.4949    2.4964 N   0  0  0  0  0  0  0  0  0  0  0  0
   -1.7125   29.6634    1.4657 C   0  0  0  0  0  0  0  0  0  0  0  0
   -2.6085   28.6155    1.5611 C   0  0  0  0  0  0  0  0  0  0  0  0
   -3.2581   28.4227    2.7234 N   0  0  0  0  0  4  0  0  0  0  0  0
   -4.3588   26.6161    4.9470 C   0  0  0  0  0  0  0  0  0  0  0  0
   -5.1312   25.7345    4.1706 C   0  0  0  0  0  0  0  0  0  0  0  0
   -4.6751   24.4448    3.8790 C   0  0  0  0  0  0  0  0  0  0  0  0
   -3.4450   24.0076    4.3652 C   0  0  0  0  0  0  0  0  0  0  0  0
   -2.6800   24.8563    5.1564 C   0  0  0  0  0  0  0  0  0  0  0  0
   -1.1613   24.3292    5.7624 Cl  0  0  0  0  0  0  0  0  0  0  0  0
   -3.1318   26.1436    5.4536 C   0  0  0  0  0  0  0  0  0  0  0  0
  2  1  1  6
  2  3  1  0
  3  4  1  0
  4  5  2  0
  5  6  1  0
  6  7  2  0
  7  8  1  0
  8  9  2  0
  2 10  1  0
 10 11  2  0
 11 12  1  0
 12 13  2  0
 13 14  1  0
 14 15  1  0
 14 16  2  0
  9  4  1  0
 16 10  1  0
M  CHG  1   9   1
M  END
>  <Energy>  (985) 
71.775003621005709

>  <Energy_Delta>  (985) 
1.7662907525334504

>  <std_smi>  (985) 
CC(Nc1cnccn1)c1cccc(Cl)c1

>  <enum_smi>  (985) 
C[C@H](Nc1cncc[nH+]1)c1cccc(Cl)c1

>  <enum_code>  (985) 
M

>  <parent_uuid>  (985) 
6620cc01-fc2b-4cc4-81f0-045e40704b17

>  <o3da_score>  (985) 
96.213062818525472

>  <o3da_score_rel>  (985) 
0.38303818244205634

>  <o3da_align>  (985) 
0.42792820014703148

>  <RMSD>  (985) 
0.075116285469917513

>  <CONVERGED>  (985) 
0

>  <ENERGY>  (985) 
72.752429695908305

$$$$
784bdf52-e447-44f7-aefe-940747d461b5
     RDKit          3D

 16 17  0  0  0  0  0  0  0  0999 V2000
   -6.0333   28.5743    4.5381 C   0  0  0  0  0  0  0  0  0  0  0  0
   -4.7387   28.0704    5.1819 C   0  0  2  0  0  0  0  0  0  0  0  0
   -3.6564   29.0505    4.9809 N   0  0  0  0  0  0  0  0  0  0  0  0
   -2.9921   29.3077    3.8130 C   0  0  0  0  0  0  0  0  0  0  0  0
   -3.2161   28.7283    2.5557 C   0  0  0  0  0  0  0  0  0  0  0  0
   -2.5126   29.0434    1.4391 N   0  0  0  0  0  0  0  0  0  0  0  0
   -1.5391   29.9604    1.5686 C   0  0  0  0  0  0  0  0  0  0  0  0
   -1.2649   30.5635    2.7794 C   0  0  0  0  0  0  0  0  0  0  0  0
   -1.9980   30.2200    3.8534 N   0  0  0  0  0  4  0  0  0  0  0  0
   -4.2853   26.6593    4.8472 C   0  0  0  0  0  0  0  0  0  0  0  0
   -4.9975   25.8120    3.9826 C   0  0  0  0  0  0  0  0  0  0  0  0
   -4.5401   24.5194    3.7048 C   0  0  0  0  0  0  0  0  0  0  0  0
   -3.3683   24.0465    4.2918 C   0  0  0  0  0  0  0  0  0  0  0  0
   -2.6614   24.8653    5.1642 C   0  0  0  0  0  0  0  0  0  0  0  0
   -1.2134   24.2970    5.8966 Cl  0  0  0  0  0  0  0  0  0  0  0  0
   -3.1152   26.1545    5.4480 C   0  0  0  0  0  0  0  0  0  0  0  0
  2  1  1  6
  2  3  1  0
  3  4  1  0
  4  5  2  0
  5  6  1  0
  6  7  2  0
  7  8  1  0
  8  9  2  0
  2 10  1  0
 10 11  2  0
 11 12  1  0
 12 13  2  0
 13 14  1  0
 14 15  1  0
 14 16  2  0
  9  4  1  0
 16 10  1  0
M  CHG  1   9   1
M  END
>  <Energy>  (986) 
74.178942499323483

>  <Energy_Delta>  (986) 
4.1702296308512246

>  <std_smi>  (986) 
CC(Nc1cnccn1)c1cccc(Cl)c1

>  <enum_smi>  (986) 
C[C@H](Nc1cncc[nH+]1)c1cccc(Cl)c1

>  <enum_code>  (986) 
M

>  <parent_uuid>  (986) 
6620cc01-fc2b-4cc4-81f0-045e40704b17

>  <o3da_score>  (986) 
96.3443933850928

>  <o3da_score_rel>  (986) 
0.38356102850935092

>  <o3da_align>  (986) 
0.50446417142682609

>  <RMSD>  (986) 
7.1419000701620187e-05

>  <CONVERGED>  (986) 
0

>  <ENERGY>  (986) 
74.178942454058003

$$$$
784bdf52-e447-44f7-aefe-940747d461b5
     RDKit          3D

 16 17  0  0  0  0  0  0  0  0999 V2000
   -5.1430   29.7807    5.2449 C   0  0  0  0  0  0  0  0  0  0  0  0
   -3.8334   29.0166    5.0318 C   0  0  2  0  0  0  0  0  0  0  0  0
   -3.1397   29.5250    3.8481 N   0  0  0  0  0  0  0  0  0  0  0  0
   -2.4917   30.7409    3.7601 C   0  0  0  0  0  0  0  0  0  0  0  0
   -1.9690   31.2123    2.5449 C   0  0  0  0  0  0  0  0  0  0  0  0
   -1.2836   32.3726    2.4180 N   0  0  0  0  0  0  0  0  0  0  0  0
   -1.0763   33.0817    3.5419 C   0  0  0  0  0  0  0  0  0  0  0  0
   -1.5332   32.6517    4.7733 C   0  0  0  0  0  0  0  0  0  0  0  0
   -2.2170   31.4938    4.8437 N   0  0  0  0  0  4  0  0  0  0  0  0
   -3.9894   27.5164    4.8523 C   0  0  0  0  0  0  0  0  0  0  0  0
   -5.1784   26.9110    4.4139 C   0  0  0  0  0  0  0  0  0  0  0  0
   -5.2574   25.5244    4.2455 C   0  0  0  0  0  0  0  0  0  0  0  0
   -4.1488   24.7203    4.5025 C   0  0  0  0  0  0  0  0  0  0  0  0
   -2.9609   25.3060    4.9245 C   0  0  0  0  0  0  0  0  0  0  0  0
   -1.5820   24.3266    5.2343 Cl  0  0  0  0  0  0  0  0  0  0  0  0
   -2.8762   26.6888    5.0960 C   0  0  0  0  0  0  0  0  0  0  0  0
  2  1  1  6
  2  3  1  0
  3  4  1  0
  4  5  2  0
  5  6  1  0
  6  7  2  0
  7  8  1  0
  8  9  2  0
  2 10  1  0
 10 11  2  0
 11 12  1  0
 12 13  2  0
 13 14  1  0
 14 15  1  0
 14 16  2  0
  9  4  1  0
 16 10  1  0
M  CHG  1   9   1
M  END
>  <Energy>  (987) 
75.017389312834865

>  <Energy_Delta>  (987) 
5.0086764443626066

>  <std_smi>  (987) 
CC(Nc1cnccn1)c1cccc(Cl)c1

>  <enum_smi>  (987) 
C[C@H](Nc1cncc[nH+]1)c1cccc(Cl)c1

>  <enum_code>  (987) 
M

>  <parent_uuid>  (987) 
6620cc01-fc2b-4cc4-81f0-045e40704b17

>  <o3da_score>  (987) 
78.111295512482769

>  <o3da_score_rel>  (987) 
0.31097241668451325

>  <o3da_align>  (987) 
0.54537731323919969

>  <RMSD>  (987) 
0.34701156209359946

>  <CONVERGED>  (987) 
0

>  <ENERGY>  (987) 
75.223276590761841

$$$$
784bdf52-e447-44f7-aefe-940747d461b5
     RDKit          3D

 16 17  0  0  0  0  0  0  0  0999 V2000
   -5.9151   28.6135    4.6159 C   0  0  0  0  0  0  0  0  0  0  0  0
   -4.5815   28.1216    5.1857 C   0  0  2  0  0  0  0  0  0  0  0  0
   -3.4824   28.9948    4.7370 N   0  0  0  0  0  0  0  0  0  0  0  0
   -2.9795   29.0902    3.4684 C   0  0  0  0  0  0  0  0  0  0  0  0
   -3.3414   28.3345    2.3441 C   0  0  0  0  0  0  0  0  0  0  0  0
   -2.7915   28.4945    1.1140 N   0  0  0  0  0  0  0  0  0  0  0  0
   -1.8358   29.4302    0.9877 C   0  0  0  0  0  0  0  0  0  0  0  0
   -1.4283   30.2008    2.0574 C   0  0  0  0  0  0  0  0  0  0  0  0
   -2.0109   30.0058    3.2539 N   0  0  0  0  0  4  0  0  0  0  0  0
   -4.2375   26.6519    5.0125 C   0  0  0  0  0  0  0  0  0  0  0  0
   -3.0525   26.1490    5.5853 C   0  0  0  0  0  0  0  0  0  0  0  0
   -2.7014   24.8026    5.4581 C   0  0  0  0  0  0  0  0  0  0  0  0
   -3.5322   23.9289    4.7616 C   0  0  0  0  0  0  0  0  0  0  0  0
   -4.7141   24.4046    4.2038 C   0  0  0  0  0  0  0  0  0  0  0  0
   -5.7475   23.3302    3.3460 Cl  0  0  0  0  0  0  0  0  0  0  0  0
   -5.0713   25.7501    4.3302 C   0  0  0  0  0  0  0  0  0  0  0  0
  2  1  1  6
  2  3  1  0
  3  4  1  0
  4  5  2  0
  5  6  1  0
  6  7  2  0
  7  8  1  0
  8  9  2  0
  2 10  1  0
 10 11  2  0
 11 12  1  0
 12 13  2  0
 13 14  1  0
 14 15  1  0
 14 16  2  0
  9  4  1  0
 16 10  1  0
M  CHG  1   9   1
M  END
>  <Energy>  (988) 
75.045968530214395

>  <Energy_Delta>  (988) 
5.0372556617421367

>  <std_smi>  (988) 
CC(Nc1cnccn1)c1cccc(Cl)c1

>  <enum_smi>  (988) 
C[C@H](Nc1cncc[nH+]1)c1cccc(Cl)c1

>  <enum_code>  (988) 
M

>  <parent_uuid>  (988) 
6620cc01-fc2b-4cc4-81f0-045e40704b17

>  <o3da_score>  (988) 
91.924708740961592

>  <o3da_score_rel>  (988) 
0.36596562177910053

>  <o3da_align>  (988) 
0.50780268489248981

>  <RMSD>  (988) 
6.0377828201926407e-05

>  <CONVERGED>  (988) 
0

>  <ENERGY>  (988) 
75.045968457082736

$$$$
784bdf52-e447-44f7-aefe-940747d461b5
     RDKit          3D

 16 17  0  0  0  0  0  0  0  0999 V2000
   -4.9875   28.5701    4.2779 C   0  0  0  0  0  0  0  0  0  0  0  0
   -3.6611   27.8054    4.2447 C   0  0  2  0  0  0  0  0  0  0  0  0
   -3.0326   27.9223    2.9293 N   0  0  0  0  0  0  0  0  0  0  0  0
   -2.4484   29.0646    2.4194 C   0  0  0  0  0  0  0  0  0  0  0  0
   -1.9798   29.1263    1.0969 C   0  0  0  0  0  0  0  0  0  0  0  0
   -1.3575   30.2051    0.5665 N   0  0  0  0  0  0  0  0  0  0  0  0
   -1.1611   31.2555    1.3831 C   0  0  0  0  0  0  0  0  0  0  0  0
   -1.5663   31.2411    2.7044 C   0  0  0  0  0  0  0  0  0  0  0  0
   -2.1871   30.1453    3.1810 N   0  0  0  0  0  4  0  0  0  0  0  0
   -3.7955   26.3251    4.5550 C   0  0  0  0  0  0  0  0  0  0  0  0
   -2.7596   25.6690    5.2450 C   0  0  0  0  0  0  0  0  0  0  0  0
   -2.8350   24.3022    5.5269 C   0  0  0  0  0  0  0  0  0  0  0  0
   -3.9418   23.5640    5.1146 C   0  0  0  0  0  0  0  0  0  0  0  0
   -4.9665   24.1954    4.4176 C   0  0  0  0  0  0  0  0  0  0  0  0
   -6.3298   23.2882    3.8914 Cl  0  0  0  0  0  0  0  0  0  0  0  0
   -4.8978   25.5619    4.1334 C   0  0  0  0  0  0  0  0  0  0  0  0
  2  1  1  6
  2  3  1  0
  3  4  1  0
  4  5  2  0
  5  6  1  0
  6  7  2  0
  7  8  1  0
  8  9  2  0
  2 10  1  0
 10 11  2  0
 11 12  1  0
 12 13  2  0
 13 14  1  0
 14 15  1  0
 14 16  2  0
  9  4  1  0
 16 10  1  0
M  CHG  1   9   1
M  END
>  <Energy>  (989) 
75.145450388675144

>  <Energy_Delta>  (989) 
5.1367375202028853

>  <std_smi>  (989) 
CC(Nc1cnccn1)c1cccc(Cl)c1

>  <enum_smi>  (989) 
C[C@H](Nc1cncc[nH+]1)c1cccc(Cl)c1

>  <enum_code>  (989) 
M

>  <parent_uuid>  (989) 
6620cc01-fc2b-4cc4-81f0-045e40704b17

>  <o3da_score>  (989) 
75.941241923436564

>  <o3da_score_rel>  (989) 
0.30233311804667717

>  <o3da_align>  (989) 
0.60996546775583882

>  <RMSD>  (989) 
0.24162104818717603

>  <CONVERGED>  (989) 
0

>  <ENERGY>  (989) 
75.51438092875658

$$$$
6e75adfb-eb8a-4a73-be72-ffb59ea9da41
     RDKit          3D

 16 17  0  0  0  0  0  0  0  0999 V2000
   -4.5333   30.3101    4.9290 C   0  0  0  0  0  0  0  0  0  0  0  0
   -3.7849   29.0062    4.6461 C   0  0  1  0  0  0  0  0  0  0  0  0
   -4.6286   27.8736    5.0386 N   0  0  0  0  0  0  0  0  0  0  0  0
   -4.2286   26.5703    4.8294 C   0  0  0  0  0  0  0  0  0  0  0  0
   -2.9416   26.0953    5.0643 C   0  0  0  0  0  0  0  0  0  0  0  0
   -2.6681   24.7967    4.8375 N   0  0  0  0  0  4  0  0  0  0  0  0
   -3.6114   23.9452    4.3997 C   0  0  0  0  0  0  0  0  0  0  0  0
   -4.8843   24.4388    4.1904 C   0  0  0  0  0  0  0  0  0  0  0  0
   -5.1970   25.7344    4.4060 N   0  0  0  0  0  0  0  0  0  0  0  0
   -3.3621   28.9181    3.1889 C   0  0  0  0  0  0  0  0  0  0  0  0
   -4.3014   28.7796    2.1526 C   0  0  0  0  0  0  0  0  0  0  0  0
   -3.8886   28.6856    0.8212 C   0  0  0  0  0  0  0  0  0  0  0  0
   -2.5319   28.7271    0.5049 C   0  0  0  0  0  0  0  0  0  0  0  0
   -1.5932   28.8711    1.5218 C   0  0  0  0  0  0  0  0  0  0  0  0
    0.0839   28.9047    1.1437 Cl  0  0  0  0  0  0  0  0  0  0  0  0
   -1.9987   28.9729    2.8538 C   0  0  0  0  0  0  0  0  0  0  0  0
  2  1  1  6
  2  3  1  0
  3  4  1  0
  4  5  2  0
  5  6  1  0
  6  7  2  0
  7  8  1  0
  8  9  2  0
  2 10  1  0
 10 11  2  0
 11 12  1  0
 12 13  2  0
 13 14  1  0
 14 15  1  0
 14 16  2  0
  9  4  1  0
 16 10  1  0
M  CHG  1   6   1
M  END
>  <Energy>  (990) 
43.335711052396519

>  <Energy_Delta>  (990) 
0

>  <std_smi>  (990) 
CC(Nc1cnccn1)c1cccc(Cl)c1

>  <enum_smi>  (990) 
C[C@@H](Nc1c[nH+]ccn1)c1cccc(Cl)c1

>  <enum_code>  (990) 
M

>  <parent_uuid>  (990) 
6620cc01-fc2b-4cc4-81f0-045e40704b17

>  <o3da_score>  (990) 
81.911209771927645

>  <o3da_score_rel>  (990) 
0.32610042746324464

>  <o3da_align>  (990) 
0.37160539531607445

>  <RMSD>  (990) 
0.00011128658068644074

>  <CONVERGED>  (990) 
0

>  <ENERGY>  (990) 
43.335710922533991

$$$$
6e75adfb-eb8a-4a73-be72-ffb59ea9da41
     RDKit          3D

 16 17  0  0  0  0  0  0  0  0999 V2000
   -4.4626   30.3521    4.8626 C   0  0  0  0  0  0  0  0  0  0  0  0
   -3.6857   29.0365    4.9335 C   0  0  1  0  0  0  0  0  0  0  0  0
   -4.6316   27.9190    4.8850 N   0  0  0  0  0  0  0  0  0  0  0  0
   -4.2199   26.6068    4.8199 C   0  0  0  0  0  0  0  0  0  0  0  0
   -3.1364   26.0829    5.5181 C   0  0  0  0  0  0  0  0  0  0  0  0
   -2.8328   24.7786    5.3785 N   0  0  0  0  0  4  0  0  0  0  0  0
   -3.5566   23.9681    4.5873 C   0  0  0  0  0  0  0  0  0  0  0  0
   -4.6355   24.5100    3.9171 C   0  0  0  0  0  0  0  0  0  0  0  0
   -4.9712   25.8123    4.0324 N   0  0  0  0  0  0  0  0  0  0  0  0
   -2.6429   28.9686    3.8291 C   0  0  0  0  0  0  0  0  0  0  0  0
   -1.2964   29.2422    4.1257 C   0  0  0  0  0  0  0  0  0  0  0  0
   -0.3194   29.1871    3.1286 C   0  0  0  0  0  0  0  0  0  0  0  0
   -0.6733   28.8596    1.8207 C   0  0  0  0  0  0  0  0  0  0  0  0
   -2.0053   28.5995    1.5117 C   0  0  0  0  0  0  0  0  0  0  0  0
   -2.4449   28.1853   -0.0981 Cl  0  0  0  0  0  0  0  0  0  0  0  0
   -2.9872   28.6611    2.5011 C   0  0  0  0  0  0  0  0  0  0  0  0
  2  1  1  6
  2  3  1  0
  3  4  1  0
  4  5  2  0
  5  6  1  0
  6  7  2  0
  7  8  1  0
  8  9  2  0
  2 10  1  0
 10 11  2  0
 11 12  1  0
 12 13  2  0
 13 14  1  0
 14 15  1  0
 14 16  2  0
  9  4  1  0
 16 10  1  0
M  CHG  1   6   1
M  END
>  <Energy>  (991) 
43.532587520211521

>  <Energy_Delta>  (991) 
0.19687646781500234

>  <std_smi>  (991) 
CC(Nc1cnccn1)c1cccc(Cl)c1

>  <enum_smi>  (991) 
C[C@@H](Nc1c[nH+]ccn1)c1cccc(Cl)c1

>  <enum_code>  (991) 
M

>  <parent_uuid>  (991) 
6620cc01-fc2b-4cc4-81f0-045e40704b17

>  <o3da_score>  (991) 
81.356848278352217

>  <o3da_score_rel>  (991) 
0.32389343381088054

>  <o3da_align>  (991) 
0.40330212606477961

>  <RMSD>  (991) 
5.8775861863921199e-05

>  <CONVERGED>  (991) 
0

>  <ENERGY>  (991) 
43.532587508579866

$$$$
6e75adfb-eb8a-4a73-be72-ffb59ea9da41
     RDKit          3D

 16 17  0  0  0  0  0  0  0  0999 V2000
   -2.7406   29.3052    6.3531 C   0  0  0  0  0  0  0  0  0  0  0  0
   -3.8889   28.7694    5.4892 C   0  0  1  0  0  0  0  0  0  0  0  0
   -4.0571   29.5836    4.2646 N   0  0  0  0  0  0  0  0  0  0  0  0
   -3.0038   29.6812    3.3673 C   0  0  0  0  0  0  0  0  0  0  0  0
   -2.5461   28.6186    2.5920 C   0  0  0  0  0  0  0  0  0  0  0  0
   -1.5387   28.8249    1.7236 N   0  0  0  0  0  4  0  0  0  0  0  0
   -0.9707   30.0344    1.5803 C   0  0  0  0  0  0  0  0  0  0  0  0
   -1.4550   31.0743    2.3515 C   0  0  0  0  0  0  0  0  0  0  0  0
   -2.4642   30.9081    3.2342 N   0  0  0  0  0  0  0  0  0  0  0  0
   -3.8603   27.2832    5.1689 C   0  0  0  0  0  0  0  0  0  0  0  0
   -5.0114   26.6870    4.6181 C   0  0  0  0  0  0  0  0  0  0  0  0
   -5.0354   25.3295    4.2906 C   0  0  0  0  0  0  0  0  0  0  0  0
   -3.9067   24.5421    4.5041 C   0  0  0  0  0  0  0  0  0  0  0  0
   -2.7630   25.1155    5.0516 C   0  0  0  0  0  0  0  0  0  0  0  0
   -1.3557   24.1563    5.2901 Cl  0  0  0  0  0  0  0  0  0  0  0  0
   -2.7353   26.4715    5.3886 C   0  0  0  0  0  0  0  0  0  0  0  0
  2  1  1  6
  2  3  1  0
  3  4  1  0
  4  5  2  0
  5  6  1  0
  6  7  2  0
  7  8  1  0
  8  9  2  0
  2 10  1  0
 10 11  2  0
 11 12  1  0
 12 13  2  0
 13 14  1  0
 14 15  1  0
 14 16  2  0
  9  4  1  0
 16 10  1  0
M  CHG  1   6   1
M  END
>  <Energy>  (992) 
44.436575452703487

>  <Energy_Delta>  (992) 
1.1008644003069676

>  <std_smi>  (992) 
CC(Nc1cnccn1)c1cccc(Cl)c1

>  <enum_smi>  (992) 
C[C@@H](Nc1c[nH+]ccn1)c1cccc(Cl)c1

>  <enum_code>  (992) 
M

>  <parent_uuid>  (992) 
6620cc01-fc2b-4cc4-81f0-045e40704b17

>  <o3da_score>  (992) 
81.286083007617691

>  <o3da_score_rel>  (992) 
0.32361170698618419

>  <o3da_align>  (992) 
0.51382662087100173

>  <RMSD>  (992) 
6.9593725727369173e-05

>  <CONVERGED>  (992) 
0

>  <ENERGY>  (992) 
44.436575423854002

$$$$
6e75adfb-eb8a-4a73-be72-ffb59ea9da41
     RDKit          3D

 16 17  0  0  0  0  0  0  0  0999 V2000
   -4.3312   30.1029    5.8022 C   0  0  0  0  0  0  0  0  0  0  0  0
   -3.6348   28.9263    5.1084 C   0  0  1  0  0  0  0  0  0  0  0  0
   -4.6600   27.9237    4.7672 N   0  0  0  0  0  0  0  0  0  0  0  0
   -4.2576   26.5874    4.7062 C   0  0  0  0  0  0  0  0  0  0  0  0
   -5.1798   25.6135    4.3214 C   0  0  0  0  0  0  0  0  0  0  0  0
   -4.8163   24.3176    4.3162 N   0  0  0  0  0  4  0  0  0  0  0  0
   -3.5831   23.9318    4.6847 C   0  0  0  0  0  0  0  0  0  0  0  0
   -2.6914   24.9079    5.0808 C   0  0  0  0  0  0  0  0  0  0  0  0
   -3.0234   26.2164    5.1031 N   0  0  0  0  0  0  0  0  0  0  0  0
   -2.8912   29.3410    3.8460 C   0  0  0  0  0  0  0  0  0  0  0  0
   -3.4536   30.1993    2.8854 C   0  0  0  0  0  0  0  0  0  0  0  0
   -2.7505   30.5323    1.7238 C   0  0  0  0  0  0  0  0  0  0  0  0
   -1.4805   30.0043    1.4977 C   0  0  0  0  0  0  0  0  0  0  0  0
   -0.9161   29.1461    2.4361 C   0  0  0  0  0  0  0  0  0  0  0  0
    0.6408   28.4712    2.1548 Cl  0  0  0  0  0  0  0  0  0  0  0  0
   -1.6098   28.8170    3.6008 C   0  0  0  0  0  0  0  0  0  0  0  0
  2  1  1  6
  2  3  1  0
  3  4  1  0
  4  5  2  0
  5  6  1  0
  6  7  2  0
  7  8  1  0
  8  9  2  0
  2 10  1  0
 10 11  2  0
 11 12  1  0
 12 13  2  0
 13 14  1  0
 14 15  1  0
 14 16  2  0
  9  4  1  0
 16 10  1  0
M  CHG  1   6   1
M  END
>  <Energy>  (993) 
45.894594991523284

>  <Energy_Delta>  (993) 
2.5588839391267655

>  <std_smi>  (993) 
CC(Nc1cnccn1)c1cccc(Cl)c1

>  <enum_smi>  (993) 
C[C@@H](Nc1c[nH+]ccn1)c1cccc(Cl)c1

>  <enum_code>  (993) 
M

>  <parent_uuid>  (993) 
6620cc01-fc2b-4cc4-81f0-045e40704b17

>  <o3da_score>  (993) 
76.927195365223142

>  <o3da_score_rel>  (993) 
0.30625834195340124

>  <o3da_align>  (993) 
0.23398207566496237

>  <RMSD>  (993) 
9.6637494196828944e-05

>  <CONVERGED>  (993) 
0

>  <ENERGY>  (993) 
45.894594949276687

$$$$
6e75adfb-eb8a-4a73-be72-ffb59ea9da41
     RDKit          3D

 16 17  0  0  0  0  0  0  0  0999 V2000
   -3.6341   29.0231    6.5758 C   0  0  0  0  0  0  0  0  0  0  0  0
   -3.3601   28.7911    5.0858 C   0  0  1  0  0  0  0  0  0  0  0  0
   -4.3520   27.8779    4.4995 N   0  0  0  0  0  0  0  0  0  0  0  0
   -4.2045   26.5129    4.7188 C   0  0  0  0  0  0  0  0  0  0  0  0
   -5.0952   25.6226    4.1184 C   0  0  0  0  0  0  0  0  0  0  0  0
   -4.9154   24.2977    4.2719 N   0  0  0  0  0  4  0  0  0  0  0  0
   -3.8897   23.8061    4.9872 C   0  0  0  0  0  0  0  0  0  0  0  0
   -3.0130   24.7040    5.5633 C   0  0  0  0  0  0  0  0  0  0  0  0
   -3.1600   26.0397    5.4275 N   0  0  0  0  0  0  0  0  0  0  0  0
   -3.4086   30.0803    4.2762 C   0  0  0  0  0  0  0  0  0  0  0  0
   -2.4093   30.3355    3.3204 C   0  0  0  0  0  0  0  0  0  0  0  0
   -2.4352   31.4983    2.5458 C   0  0  0  0  0  0  0  0  0  0  0  0
   -3.4669   32.4209    2.7060 C   0  0  0  0  0  0  0  0  0  0  0  0
   -4.4697   32.1748    3.6389 C   0  0  0  0  0  0  0  0  0  0  0  0
   -5.7559   33.3014    3.8305 Cl  0  0  0  0  0  0  0  0  0  0  0  0
   -4.4477   31.0163    4.4184 C   0  0  0  0  0  0  0  0  0  0  0  0
  2  1  1  1
  2  3  1  0
  3  4  1  0
  4  5  2  0
  5  6  1  0
  6  7  2  0
  7  8  1  0
  8  9  2  0
  2 10  1  0
 10 11  2  0
 11 12  1  0
 12 13  2  0
 13 14  1  0
 14 15  1  0
 14 16  2  0
  9  4  1  0
 16 10  1  0
M  CHG  1   6   1
M  END
>  <Energy>  (994) 
45.928535092480381

>  <Energy_Delta>  (994) 
2.5928240400838618

>  <std_smi>  (994) 
CC(Nc1cnccn1)c1cccc(Cl)c1

>  <enum_smi>  (994) 
C[C@@H](Nc1c[nH+]ccn1)c1cccc(Cl)c1

>  <enum_code>  (994) 
M

>  <parent_uuid>  (994) 
6620cc01-fc2b-4cc4-81f0-045e40704b17

>  <o3da_score>  (994) 
76.13668833785816

>  <o3da_score_rel>  (994) 
0.30311121862004808

>  <o3da_align>  (994) 
0.51759317745348898

>  <RMSD>  (994) 
0.23063625096410895

>  <CONVERGED>  (994) 
0

>  <ENERGY>  (994) 
47.057484422331072

$$$$
6e75adfb-eb8a-4a73-be72-ffb59ea9da41
     RDKit          3D

 16 17  0  0  0  0  0  0  0  0999 V2000
   -2.8195   29.6324    4.3915 C   0  0  0  0  0  0  0  0  0  0  0  0
   -3.8814   28.9668    5.2718 C   0  0  1  0  0  0  0  0  0  0  0  0
   -4.5221   27.8804    4.5171 N   0  0  0  0  0  0  0  0  0  0  0  0
   -4.1719   26.5536    4.5968 C   0  0  0  0  0  0  0  0  0  0  0  0
   -2.8681   26.0710    4.6317 C   0  0  0  0  0  0  0  0  0  0  0  0
   -2.6567   24.7431    4.7003 N   0  0  0  0  0  4  0  0  0  0  0  0
   -3.6762   23.8685    4.7220 C   0  0  0  0  0  0  0  0  0  0  0  0
   -4.9613   24.3705    4.6675 C   0  0  0  0  0  0  0  0  0  0  0  0
   -5.2121   25.6955    4.6010 N   0  0  0  0  0  0  0  0  0  0  0  0
   -3.4422   28.5297    6.6626 C   0  0  0  0  0  0  0  0  0  0  0  0
   -4.4204   28.1179    7.5888 C   0  0  0  0  0  0  0  0  0  0  0  0
   -4.0680   27.6908    8.8713 C   0  0  0  0  0  0  0  0  0  0  0  0
   -2.7293   27.6653    9.2534 C   0  0  0  0  0  0  0  0  0  0  0  0
   -1.7517   28.0766    8.3532 C   0  0  0  0  0  0  0  0  0  0  0  0
   -0.0937   28.0241    8.8074 Cl  0  0  0  0  0  0  0  0  0  0  0  0
   -2.0988   28.5133    7.0718 C   0  0  0  0  0  0  0  0  0  0  0  0
  2  1  1  6
  2  3  1  0
  3  4  1  0
  4  5  2  0
  5  6  1  0
  6  7  2  0
  7  8  1  0
  8  9  2  0
  2 10  1  0
 10 11  2  0
 11 12  1  0
 12 13  2  0
 13 14  1  0
 14 15  1  0
 14 16  2  0
  9  4  1  0
 16 10  1  0
M  CHG  1   6   1
M  END
>  <Energy>  (995) 
46.102236383109577

>  <Energy_Delta>  (995) 
2.7665253307130584

>  <std_smi>  (995) 
CC(Nc1cnccn1)c1cccc(Cl)c1

>  <enum_smi>  (995) 
C[C@@H](Nc1c[nH+]ccn1)c1cccc(Cl)c1

>  <enum_code>  (995) 
M

>  <parent_uuid>  (995) 
6620cc01-fc2b-4cc4-81f0-045e40704b17

>  <o3da_score>  (995) 
65.534691685294305

>  <o3da_score_rel>  (995) 
0.26090312951977157

>  <o3da_align>  (995) 
0.48847674546487585

>  <RMSD>  (995) 
6.7228120854467182e-05

>  <CONVERGED>  (995) 
0

>  <ENERGY>  (995) 
46.102236372102446

$$$$
6e75adfb-eb8a-4a73-be72-ffb59ea9da41
     RDKit          3D

 16 17  0  0  0  0  0  0  0  0999 V2000
   -4.3956   30.6689    3.2491 C   0  0  0  0  0  0  0  0  0  0  0  0
   -3.2614   29.6623    3.4689 C   0  0  1  0  0  0  0  0  0  0  0  0
   -1.9731   30.3452    3.6186 N   0  0  0  0  0  0  0  0  0  0  0  0
   -1.3959   30.9714    2.5326 C   0  0  0  0  0  0  0  0  0  0  0  0
   -1.1404   30.3355    1.3205 C   0  0  0  0  0  0  0  0  0  0  0  0
   -0.5179   31.0167    0.3399 N   0  0  0  0  0  4  0  0  0  0  0  0
   -0.1361   32.2952    0.5047 C   0  0  0  0  0  0  0  0  0  0  0  0
   -0.3987   32.8996    1.7191 C   0  0  0  0  0  0  0  0  0  0  0  0
   -1.0184   32.2488    2.7272 N   0  0  0  0  0  0  0  0  0  0  0  0
   -3.4630   28.7894    4.6959 C   0  0  0  0  0  0  0  0  0  0  0  0
   -3.9047   29.3087    5.9250 C   0  0  0  0  0  0  0  0  0  0  0  0
   -4.0586   28.4794    7.0400 C   0  0  0  0  0  0  0  0  0  0  0  0
   -3.7635   27.1206    6.9489 C   0  0  0  0  0  0  0  0  0  0  0  0
   -3.3100   26.5965    5.7430 C   0  0  0  0  0  0  0  0  0  0  0  0
   -2.9305   24.9229    5.6230 Cl  0  0  0  0  0  0  0  0  0  0  0  0
   -3.1561   27.4189    4.6254 C   0  0  0  0  0  0  0  0  0  0  0  0
  2  1  1  1
  2  3  1  0
  3  4  1  0
  4  5  2  0
  5  6  1  0
  6  7  2  0
  7  8  1  0
  8  9  2  0
  2 10  1  0
 10 11  2  0
 11 12  1  0
 12 13  2  0
 13 14  1  0
 14 15  1  0
 14 16  2  0
  9  4  1  0
 16 10  1  0
M  CHG  1   6   1
M  END
>  <Energy>  (996) 
46.120419916761819

>  <Energy_Delta>  (996) 
2.7847088643652995

>  <std_smi>  (996) 
CC(Nc1cnccn1)c1cccc(Cl)c1

>  <enum_smi>  (996) 
C[C@@H](Nc1c[nH+]ccn1)c1cccc(Cl)c1

>  <enum_code>  (996) 
M

>  <parent_uuid>  (996) 
6620cc01-fc2b-4cc4-81f0-045e40704b17

>  <o3da_score>  (996) 
71.768465225970232

>  <o3da_score_rel>  (996) 
0.28572068772680675

>  <o3da_align>  (996) 
0.41182565510834851

>  <RMSD>  (996) 
7.0785829695939185e-05

>  <CONVERGED>  (996) 
0

>  <ENERGY>  (996) 
46.120419888029645

$$$$
6e75adfb-eb8a-4a73-be72-ffb59ea9da41
     RDKit          3D

 16 17  0  0  0  0  0  0  0  0999 V2000
   -4.1790   28.9595    6.7353 C   0  0  0  0  0  0  0  0  0  0  0  0
   -3.5638   28.8730    5.3341 C   0  0  1  0  0  0  0  0  0  0  0  0
   -4.3407   27.9564    4.4857 N   0  0  0  0  0  0  0  0  0  0  0  0
   -4.1420   26.5889    4.6293 C   0  0  0  0  0  0  0  0  0  0  0  0
   -4.8132   25.7057    3.7833 C   0  0  0  0  0  0  0  0  0  0  0  0
   -4.5661   24.3856    3.8696 N   0  0  0  0  0  4  0  0  0  0  0  0
   -3.6792   23.8928    4.7505 C   0  0  0  0  0  0  0  0  0  0  0  0
   -3.0179   24.7849    5.5711 C   0  0  0  0  0  0  0  0  0  0  0  0
   -3.2377   26.1160    5.5100 N   0  0  0  0  0  0  0  0  0  0  0  0
   -3.5006   30.2007    4.5882 C   0  0  0  0  0  0  0  0  0  0  0  0
   -4.3261   31.2976    4.8837 C   0  0  0  0  0  0  0  0  0  0  0  0
   -4.2353   32.4822    4.1451 C   0  0  0  0  0  0  0  0  0  0  0  0
   -3.3266   32.5870    3.0935 C   0  0  0  0  0  0  0  0  0  0  0  0
   -2.5106   31.5049    2.7816 C   0  0  0  0  0  0  0  0  0  0  0  0
   -1.3968   31.6179    1.4758 Cl  0  0  0  0  0  0  0  0  0  0  0  0
   -2.5939   30.3226    3.5173 C   0  0  0  0  0  0  0  0  0  0  0  0
  2  1  1  1
  2  3  1  0
  3  4  1  0
  4  5  2  0
  5  6  1  0
  6  7  2  0
  7  8  1  0
  8  9  2  0
  2 10  1  0
 10 11  2  0
 11 12  1  0
 12 13  2  0
 13 14  1  0
 14 15  1  0
 14 16  2  0
  9  4  1  0
 16 10  1  0
M  CHG  1   6   1
M  END
>  <Energy>  (997) 
46.176314677202221

>  <Energy_Delta>  (997) 
2.8406036248057021

>  <std_smi>  (997) 
CC(Nc1cnccn1)c1cccc(Cl)c1

>  <enum_smi>  (997) 
C[C@@H](Nc1c[nH+]ccn1)c1cccc(Cl)c1

>  <enum_code>  (997) 
M

>  <parent_uuid>  (997) 
6620cc01-fc2b-4cc4-81f0-045e40704b17

>  <o3da_score>  (997) 
81.332699556385606

>  <o3da_score_rel>  (997) 
0.32379729424002168

>  <o3da_align>  (997) 
0.52569444563928724

>  <RMSD>  (997) 
0.44400525141324537

>  <CONVERGED>  (997) 
0

>  <ENERGY>  (997) 
46.87274299866133

$$$$
6e75adfb-eb8a-4a73-be72-ffb59ea9da41
     RDKit          3D

 16 17  0  0  0  0  0  0  0  0999 V2000
   -3.0988   29.4801    6.0996 C   0  0  0  0  0  0  0  0  0  0  0  0
   -3.7030   28.9907    4.7795 C   0  0  1  0  0  0  0  0  0  0  0  0
   -2.8458   29.3394    3.6419 N   0  0  0  0  0  0  0  0  0  0  0  0
   -2.7010   30.6607    3.2694 C   0  0  0  0  0  0  0  0  0  0  0  0
   -3.7693   31.5028    2.9737 C   0  0  0  0  0  0  0  0  0  0  0  0
   -3.5195   32.7607    2.5630 N   0  0  0  0  0  4  0  0  0  0  0  0
   -2.2632   33.2210    2.4302 C   0  0  0  0  0  0  0  0  0  0  0  0
   -1.2225   32.3619    2.7263 C   0  0  0  0  0  0  0  0  0  0  0  0
   -1.4330   31.0934    3.1383 N   0  0  0  0  0  0  0  0  0  0  0  0
   -3.9122   27.4857    4.7669 C   0  0  0  0  0  0  0  0  0  0  0  0
   -5.1688   26.9541    4.4285 C   0  0  0  0  0  0  0  0  0  0  0  0
   -5.3796   25.5726    4.4015 C   0  0  0  0  0  0  0  0  0  0  0  0
   -4.3365   24.7000    4.7055 C   0  0  0  0  0  0  0  0  0  0  0  0
   -3.0850   25.2124    5.0328 C   0  0  0  0  0  0  0  0  0  0  0  0
   -1.7910   24.1405    5.4011 Cl  0  0  0  0  0  0  0  0  0  0  0  0
   -2.8682   26.5913    5.0632 C   0  0  0  0  0  0  0  0  0  0  0  0
  2  1  1  1
  2  3  1  0
  3  4  1  0
  4  5  2  0
  5  6  1  0
  6  7  2  0
  7  8  1  0
  8  9  2  0
  2 10  1  0
 10 11  2  0
 11 12  1  0
 12 13  2  0
 13 14  1  0
 14 15  1  0
 14 16  2  0
  9  4  1  0
 16 10  1  0
M  CHG  1   6   1
M  END
>  <Energy>  (998) 
46.480256492812089

>  <Energy_Delta>  (998) 
3.1445454404155697

>  <std_smi>  (998) 
CC(Nc1cnccn1)c1cccc(Cl)c1

>  <enum_smi>  (998) 
C[C@@H](Nc1c[nH+]ccn1)c1cccc(Cl)c1

>  <enum_code>  (998) 
M

>  <parent_uuid>  (998) 
6620cc01-fc2b-4cc4-81f0-045e40704b17

>  <o3da_score>  (998) 
74.531552652941144

>  <o3da_score_rel>  (998) 
0.29672094023879364

>  <o3da_align>  (998) 
0.57190793288918274

>  <RMSD>  (998) 
5.6059301236624701e-05

>  <CONVERGED>  (998) 
0

>  <ENERGY>  (998) 
46.48025648355955

$$$$
6e75adfb-eb8a-4a73-be72-ffb59ea9da41
     RDKit          3D

 16 17  0  0  0  0  0  0  0  0999 V2000
   -4.4501   28.4729    6.5551 C   0  0  0  0  0  0  0  0  0  0  0  0
   -4.4144   28.0893    5.0735 C   0  0  1  0  0  0  0  0  0  0  0  0
   -3.3557   28.8465    4.3906 N   0  0  0  0  0  0  0  0  0  0  0  0
   -3.7283   29.8795    3.5463 C   0  0  0  0  0  0  0  0  0  0  0  0
   -4.4932   30.9716    3.9465 C   0  0  0  0  0  0  0  0  0  0  0  0
   -4.7458   31.9556    3.0622 N   0  0  0  0  0  4  0  0  0  0  0  0
   -4.2751   31.9087    1.8036 C   0  0  0  0  0  0  0  0  0  0  0  0
   -3.5156   30.8153    1.4352 C   0  0  0  0  0  0  0  0  0  0  0  0
   -3.2389   29.8109    2.2942 N   0  0  0  0  0  0  0  0  0  0  0  0
   -4.1594   26.6010    4.8938 C   0  0  0  0  0  0  0  0  0  0  0  0
   -5.0807   25.8069    4.1911 C   0  0  0  0  0  0  0  0  0  0  0  0
   -4.8542   24.4396    4.0111 C   0  0  0  0  0  0  0  0  0  0  0  0
   -3.7022   23.8470    4.5258 C   0  0  0  0  0  0  0  0  0  0  0  0
   -2.7784   24.6242    5.2179 C   0  0  0  0  0  0  0  0  0  0  0  0
   -1.3511   23.9003    5.8476 Cl  0  0  0  0  0  0  0  0  0  0  0  0
   -2.9989   25.9898    5.4021 C   0  0  0  0  0  0  0  0  0  0  0  0
  2  1  1  1
  2  3  1  0
  3  4  1  0
  4  5  2  0
  5  6  1  0
  6  7  2  0
  7  8  1  0
  8  9  2  0
  2 10  1  0
 10 11  2  0
 11 12  1  0
 12 13  2  0
 13 14  1  0
 14 15  1  0
 14 16  2  0
  9  4  1  0
 16 10  1  0
M  CHG  1   6   1
M  END
>  <Energy>  (999) 
46.746132987835736

>  <Energy_Delta>  (999) 
3.4104219354392171

>  <std_smi>  (999) 
CC(Nc1cnccn1)c1cccc(Cl)c1

>  <enum_smi>  (999) 
C[C@@H](Nc1c[nH+]ccn1)c1cccc(Cl)c1

>  <enum_code>  (999) 
M

>  <parent_uuid>  (999) 
6620cc01-fc2b-4cc4-81f0-045e40704b17

>  <o3da_score>  (999) 
63.873562871292457

>  <o3da_score_rel>  (999) 
0.25428993435605951

>  <o3da_align>  (999) 
0.36772427554891579

>  <RMSD>  (999) 
6.2375513203074057e-05

>  <CONVERGED>  (999) 
0

>  <ENERGY>  (999) 
46.746132984315878

$$$$
6e75adfb-eb8a-4a73-be72-ffb59ea9da41
     RDKit          3D

 16 17  0  0  0  0  0  0  0  0999 V2000
   -4.1572   30.2511    5.2095 C   0  0  0  0  0  0  0  0  0  0  0  0
   -3.5280   28.8701    4.9927 C   0  0  1  0  0  0  0  0  0  0  0  0
   -4.5968   27.9036    4.6768 N   0  0  0  0  0  0  0  0  0  0  0  0
   -4.2643   26.5476    4.7658 C   0  0  0  0  0  0  0  0  0  0  0  0
   -5.1539   25.5983    4.2620 C   0  0  0  0  0  0  0  0  0  0  0  0
   -4.8185   24.2954    4.2894 N   0  0  0  0  0  4  0  0  0  0  0  0
   -3.6451   23.8826    4.7979 C   0  0  0  0  0  0  0  0  0  0  0  0
   -2.7851   24.8383    5.3019 C   0  0  0  0  0  0  0  0  0  0  0  0
   -3.0876   26.1540    5.2923 N   0  0  0  0  0  0  0  0  0  0  0  0
   -2.5157   28.9353    3.8587 C   0  0  0  0  0  0  0  0  0  0  0  0
   -1.1414   28.8597    4.1379 C   0  0  0  0  0  0  0  0  0  0  0  0
   -0.1991   28.9219    3.1082 C   0  0  0  0  0  0  0  0  0  0  0  0
   -0.6173   29.0576    1.7851 C   0  0  0  0  0  0  0  0  0  0  0  0
   -1.9772   29.1347    1.4970 C   0  0  0  0  0  0  0  0  0  0  0  0
   -2.5004   29.2868   -0.1347 Cl  0  0  0  0  0  0  0  0  0  0  0  0
   -2.9224   29.0804    2.5210 C   0  0  0  0  0  0  0  0  0  0  0  0
  2  1  1  6
  2  3  1  0
  3  4  1  0
  4  5  2  0
  5  6  1  0
  6  7  2  0
  7  8  1  0
  8  9  2  0
  2 10  1  0
 10 11  2  0
 11 12  1  0
 12 13  2  0
 13 14  1  0
 14 15  1  0
 14 16  2  0
  9  4  1  0
 16 10  1  0
M  CHG  1   6   1
M  END
>  <Energy>  (1000) 
46.92453368609911

>  <Energy_Delta>  (1000) 
3.5888226337025912

>  <std_smi>  (1000) 
CC(Nc1cnccn1)c1cccc(Cl)c1

>  <enum_smi>  (1000) 
C[C@@H](Nc1c[nH+]ccn1)c1cccc(Cl)c1

>  <enum_code>  (1000) 
M

>  <parent_uuid>  (1000) 
6620cc01-fc2b-4cc4-81f0-045e40704b17

>  <o3da_score>  (1000) 
81.994197162267909

>  <o3da_score_rel>  (1000) 
0.32643081232191506

>  <o3da_align>  (1000) 
0.39376878118496911

>  <RMSD>  (1000) 
7.2967771454364997e-05

>  <CONVERGED>  (1000) 
0

>  <ENERGY>  (1000) 
46.924533665819141

$$$$
6e75adfb-eb8a-4a73-be72-ffb59ea9da41
     RDKit          3D

 16 17  0  0  0  0  0  0  0  0999 V2000
   -4.7264   27.6312    7.3636 C   0  0  0  0  0  0  0  0  0  0  0  0
   -5.0336   27.3069    5.8986 C   0  0  1  0  0  0  0  0  0  0  0  0
   -4.8685   28.4832    5.0217 N   0  0  0  0  0  0  0  0  0  0  0  0
   -3.6035   29.0009    4.7549 C   0  0  0  0  0  0  0  0  0  0  0  0
   -3.4625   29.9645    3.7560 C   0  0  0  0  0  0  0  0  0  0  0  0
   -2.2373   30.4245    3.4418 N   0  0  0  0  0  4  0  0  0  0  0  0
   -1.1367   29.9784    4.0701 C   0  0  0  0  0  0  0  0  0  0  0  0
   -1.2971   29.0306    5.0596 C   0  0  0  0  0  0  0  0  0  0  0  0
   -2.5116   28.5504    5.4006 N   0  0  0  0  0  0  0  0  0  0  0  0
   -4.3777   26.0722    5.2993 C   0  0  0  0  0  0  0  0  0  0  0  0
   -4.9384   25.4901    4.1463 C   0  0  0  0  0  0  0  0  0  0  0  0
   -4.3649   24.3614    3.5558 C   0  0  0  0  0  0  0  0  0  0  0  0
   -3.2133   23.7996    4.1022 C   0  0  0  0  0  0  0  0  0  0  0  0
   -2.6433   24.3688    5.2374 C   0  0  0  0  0  0  0  0  0  0  0  0
   -1.2052   23.6953    5.9004 Cl  0  0  0  0  0  0  0  0  0  0  0  0
   -3.2190   25.4904    5.8373 C   0  0  0  0  0  0  0  0  0  0  0  0
  2  1  1  1
  2  3  1  0
  3  4  1  0
  4  5  2  0
  5  6  1  0
  6  7  2  0
  7  8  1  0
  8  9  2  0
  2 10  1  0
 10 11  2  0
 11 12  1  0
 12 13  2  0
 13 14  1  0
 14 15  1  0
 14 16  2  0
  9  4  1  0
 16 10  1  0
M  CHG  1   6   1
M  END
>  <Energy>  (1001) 
50.050208345616781

>  <Energy_Delta>  (1001) 
6.714497293220262

>  <std_smi>  (1001) 
CC(Nc1cnccn1)c1cccc(Cl)c1

>  <enum_smi>  (1001) 
C[C@@H](Nc1c[nH+]ccn1)c1cccc(Cl)c1

>  <enum_code>  (1001) 
M

>  <parent_uuid>  (1001) 
6620cc01-fc2b-4cc4-81f0-045e40704b17

>  <o3da_score>  (1001) 
73.754043479584709

>  <o3da_score_rel>  (1001) 
0.29362556325078315

>  <o3da_align>  (1001) 
0.54208702930956776

>  <RMSD>  (1001) 
0.18658927475747822

>  <CONVERGED>  (1001) 
0

>  <ENERGY>  (1001) 
50.474399002927235

$$$$
6e75adfb-eb8a-4a73-be72-ffb59ea9da41
     RDKit          3D

 16 17  0  0  0  0  0  0  0  0999 V2000
   -3.6637   29.1315    5.4578 C   0  0  0  0  0  0  0  0  0  0  0  0
   -4.5899   28.1525    4.7294 C   0  0  1  0  0  0  0  0  0  0  0  0
   -4.9502   28.6448    3.3838 N   0  0  0  0  0  0  0  0  0  0  0  0
   -4.0051   28.6618    2.3608 C   0  0  0  0  0  0  0  0  0  0  0  0
   -4.4250   28.9207    1.0557 C   0  0  0  0  0  0  0  0  0  0  0  0
   -3.5357   28.8673    0.0471 N   0  0  0  0  0  4  0  0  0  0  0  0
   -2.2436   28.5708    0.2649 C   0  0  0  0  0  0  0  0  0  0  0  0
   -1.8469   28.3244    1.5635 C   0  0  0  0  0  0  0  0  0  0  0  0
   -2.7122   28.3709    2.5982 N   0  0  0  0  0  0  0  0  0  0  0  0
   -4.1872   26.6846    4.6977 C   0  0  0  0  0  0  0  0  0  0  0  0
   -2.9475   26.2201    5.1650 C   0  0  0  0  0  0  0  0  0  0  0  0
   -2.6256   24.8598    5.1175 C   0  0  0  0  0  0  0  0  0  0  0  0
   -3.5360   23.9410    4.5989 C   0  0  0  0  0  0  0  0  0  0  0  0
   -4.7685   24.3857    4.1324 C   0  0  0  0  0  0  0  0  0  0  0  0
   -5.8930   23.2625    3.4746 Cl  0  0  0  0  0  0  0  0  0  0  0  0
   -5.0975   25.7402    4.1850 C   0  0  0  0  0  0  0  0  0  0  0  0
  2  1  1  6
  2  3  1  0
  3  4  1  0
  4  5  2  0
  5  6  1  0
  6  7  2  0
  7  8  1  0
  8  9  2  0
  2 10  1  0
 10 11  2  0
 11 12  1  0
 12 13  2  0
 13 14  1  0
 14 15  1  0
 14 16  2  0
  9  4  1  0
 16 10  1  0
M  CHG  1   6   1
M  END
>  <Energy>  (1002) 
50.514478056536767

>  <Energy_Delta>  (1002) 
7.1787670041402478

>  <std_smi>  (1002) 
CC(Nc1cnccn1)c1cccc(Cl)c1

>  <enum_smi>  (1002) 
C[C@@H](Nc1c[nH+]ccn1)c1cccc(Cl)c1

>  <enum_code>  (1002) 
M

>  <parent_uuid>  (1002) 
6620cc01-fc2b-4cc4-81f0-045e40704b17

>  <o3da_score>  (1002) 
72.483392751424319

>  <o3da_score_rel>  (1002) 
0.28856691808166252

>  <o3da_align>  (1002) 
0.33308974402126024

>  <RMSD>  (1002) 
6.0279836655869365e-05

>  <CONVERGED>  (1002) 
0

>  <ENERGY>  (1002) 
50.514478035900126

$$$$
1162020c-833d-4925-ba41-35f660244195
     RDKit          3D

 16 17  0  0  0  0  0  0  0  0999 V2000
   -4.4616   30.3466    4.9702 C   0  0  0  0  0  0  0  0  0  0  0  0
   -3.6756   29.0352    4.9590 C   0  0  1  0  0  0  0  0  0  0  0  0
   -4.6034   27.9034    4.7514 N   0  0  0  0  0  0  0  0  0  0  0  0
   -4.2212   26.5873    4.7560 C   0  0  0  0  0  0  0  0  0  0  0  0
   -2.9974   26.0835    5.2481 C   0  0  0  0  0  0  0  0  0  0  0  0
   -2.7355   24.7634    5.1857 N   0  0  0  0  0  4  0  0  0  0  0  0
   -3.6174   23.8881    4.6730 C   0  0  0  0  0  0  0  0  0  0  0  0
   -4.8366   24.3651    4.1993 C   0  0  0  0  0  0  0  0  0  0  0  0
   -5.0930   25.6839    4.2615 N   0  0  0  0  0  4  0  0  0  0  0  0
   -2.6027   29.0534    3.8861 C   0  0  0  0  0  0  0  0  0  0  0  0
   -1.2607   29.2702    4.2418 C   0  0  0  0  0  0  0  0  0  0  0  0
   -0.2565   29.2729    3.2699 C   0  0  0  0  0  0  0  0  0  0  0  0
   -0.5769   29.0613    1.9297 C   0  0  0  0  0  0  0  0  0  0  0  0
   -1.9042   28.8676    1.5631 C   0  0  0  0  0  0  0  0  0  0  0  0
   -2.3139   28.5875   -0.0816 Cl  0  0  0  0  0  0  0  0  0  0  0  0
   -2.9142   28.8757    2.5268 C   0  0  0  0  0  0  0  0  0  0  0  0
  2  1  1  6
  2  3  1  0
  3  4  1  0
  4  5  2  0
  5  6  1  0
  6  7  2  0
  7  8  1  0
  8  9  2  0
  2 10  1  0
 10 11  2  0
 11 12  1  0
 12 13  2  0
 13 14  1  0
 14 15  1  0
 14 16  2  0
  9  4  1  0
 16 10  1  0
M  CHG  2   6   1   9   1
M  END
>  <Energy>  (1003) 
138.04078079118085

>  <Energy_Delta>  (1003) 
0

>  <std_smi>  (1003) 
CC(Nc1cnccn1)c1cccc(Cl)c1

>  <enum_smi>  (1003) 
C[C@@H](Nc1c[nH+]cc[nH+]1)c1cccc(Cl)c1

>  <enum_code>  (1003) 
M

>  <parent_uuid>  (1003) 
6620cc01-fc2b-4cc4-81f0-045e40704b17

>  <o3da_score>  (1003) 
82.85651384700779

>  <o3da_score_rel>  (1003) 
0.32986382033492495

>  <o3da_align>  (1003) 
0.33040357398246162

>  <RMSD>  (1003) 
0.0002056196800591876

>  <CONVERGED>  (1003) 
0

>  <ENERGY>  (1003) 
138.04077967430939

$$$$
1162020c-833d-4925-ba41-35f660244195
     RDKit          3D

 16 17  0  0  0  0  0  0  0  0999 V2000
   -4.4398   30.3177    5.1308 C   0  0  0  0  0  0  0  0  0  0  0  0
   -3.7416   29.0250    4.7056 C   0  0  1  0  0  0  0  0  0  0  0  0
   -4.6404   27.8754    4.9436 N   0  0  0  0  0  0  0  0  0  0  0  0
   -4.2483   26.5703    4.7740 C   0  0  0  0  0  0  0  0  0  0  0  0
   -2.9180   26.0979    4.8094 C   0  0  0  0  0  0  0  0  0  0  0  0
   -2.6601   24.7874    4.6325 N   0  0  0  0  0  4  0  0  0  0  0  0
   -3.6422   23.8914    4.4344 C   0  0  0  0  0  0  0  0  0  0  0  0
   -4.9616   24.3361    4.4192 C   0  0  0  0  0  0  0  0  0  0  0  0
   -5.2142   25.6457    4.5934 N   0  0  0  0  0  4  0  0  0  0  0  0
   -3.3273   29.0578    3.2464 C   0  0  0  0  0  0  0  0  0  0  0  0
   -4.2720   29.1420    2.2087 C   0  0  0  0  0  0  0  0  0  0  0  0
   -3.8658   29.1391    0.8714 C   0  0  0  0  0  0  0  0  0  0  0  0
   -2.5126   29.0480    0.5498 C   0  0  0  0  0  0  0  0  0  0  0  0
   -1.5680   28.9787    1.5678 C   0  0  0  0  0  0  0  0  0  0  0  0
    0.1014   28.8414    1.1873 Cl  0  0  0  0  0  0  0  0  0  0  0  0
   -1.9653   28.9942    2.9065 C   0  0  0  0  0  0  0  0  0  0  0  0
  2  1  1  6
  2  3  1  0
  3  4  1  0
  4  5  2  0
  5  6  1  0
  6  7  2  0
  7  8  1  0
  8  9  2  0
  2 10  1  0
 10 11  2  0
 11 12  1  0
 12 13  2  0
 13 14  1  0
 14 15  1  0
 14 16  2  0
  9  4  1  0
 16 10  1  0
M  CHG  2   6   1   9   1
M  END
>  <Energy>  (1004) 
138.50225664103735

>  <Energy_Delta>  (1004) 
0.46147584985649814

>  <std_smi>  (1004) 
CC(Nc1cnccn1)c1cccc(Cl)c1

>  <enum_smi>  (1004) 
C[C@@H](Nc1c[nH+]cc[nH+]1)c1cccc(Cl)c1

>  <enum_code>  (1004) 
M

>  <parent_uuid>  (1004) 
6620cc01-fc2b-4cc4-81f0-045e40704b17

>  <o3da_score>  (1004) 
80.816569497532853

>  <o3da_score_rel>  (1004) 
0.32174250548415845

>  <o3da_align>  (1004) 
0.40043884136460917

>  <RMSD>  (1004) 
6.9639450913463525e-05

>  <CONVERGED>  (1004) 
0

>  <ENERGY>  (1004) 
138.50225634910177

$$$$
1162020c-833d-4925-ba41-35f660244195
     RDKit          3D

 16 17  0  0  0  0  0  0  0  0999 V2000
   -5.5576   28.2124    6.3091 C   0  0  0  0  0  0  0  0  0  0  0  0
   -4.8360   28.1192    4.9655 C   0  0  1  0  0  0  0  0  0  0  0  0
   -3.8243   29.1895    4.8749 N   0  0  0  0  0  0  0  0  0  0  0  0
   -3.0207   29.4411    3.7796 C   0  0  0  0  0  0  0  0  0  0  0  0
   -2.1553   30.5587    3.7572 C   0  0  0  0  0  0  0  0  0  0  0  0
   -1.4111   30.8166    2.6650 N   0  0  0  0  0  4  0  0  0  0  0  0
   -1.4698   30.0398    1.5691 C   0  0  0  0  0  0  0  0  0  0  0  0
   -2.3312   28.9453    1.5674 C   0  0  0  0  0  0  0  0  0  0  0  0
   -3.0773   28.6939    2.6584 N   0  0  0  0  0  4  0  0  0  0  0  0
   -4.2127   26.7499    4.7722 C   0  0  0  0  0  0  0  0  0  0  0  0
   -4.8547   25.8034    3.9547 C   0  0  0  0  0  0  0  0  0  0  0  0
   -4.2857   24.5461    3.7375 C   0  0  0  0  0  0  0  0  0  0  0  0
   -3.0714   24.2132    4.3360 C   0  0  0  0  0  0  0  0  0  0  0  0
   -2.4403   25.1316    5.1679 C   0  0  0  0  0  0  0  0  0  0  0  0
   -0.9359   24.7421    5.8991 Cl  0  0  0  0  0  0  0  0  0  0  0  0
   -3.0077   26.3866    5.3976 C   0  0  0  0  0  0  0  0  0  0  0  0
  2  1  1  1
  2  3  1  0
  3  4  1  0
  4  5  2  0
  5  6  1  0
  6  7  2  0
  7  8  1  0
  8  9  2  0
  2 10  1  0
 10 11  2  0
 11 12  1  0
 12 13  2  0
 13 14  1  0
 14 15  1  0
 14 16  2  0
  9  4  1  0
 16 10  1  0
M  CHG  2   6   1   9   1
M  END
>  <Energy>  (1005) 
138.52065998335797

>  <Energy_Delta>  (1005) 
0.4798791921771226

>  <std_smi>  (1005) 
CC(Nc1cnccn1)c1cccc(Cl)c1

>  <enum_smi>  (1005) 
C[C@@H](Nc1c[nH+]cc[nH+]1)c1cccc(Cl)c1

>  <enum_code>  (1005) 
M

>  <parent_uuid>  (1005) 
6620cc01-fc2b-4cc4-81f0-045e40704b17

>  <o3da_score>  (1005) 
90.341012011759361

>  <o3da_score_rel>  (1005) 
0.3596606949955386

>  <o3da_align>  (1005) 
0.53150407054372684

>  <RMSD>  (1005) 
0.11157322094185376

>  <CONVERGED>  (1005) 
0

>  <ENERGY>  (1005) 
138.99146180054257

$$$$
1162020c-833d-4925-ba41-35f660244195
     RDKit          3D

 16 17  0  0  0  0  0  0  0  0999 V2000
   -5.1754   28.4156    6.6581 C   0  0  0  0  0  0  0  0  0  0  0  0
   -4.6868   28.1228    5.2400 C   0  0  1  0  0  0  0  0  0  0  0  0
   -3.5778   29.0349    4.9038 N   0  0  0  0  0  0  0  0  0  0  0  0
   -2.9692   29.1312    3.6672 C   0  0  0  0  0  0  0  0  0  0  0  0
   -1.9965   30.1256    3.4146 C   0  0  0  0  0  0  0  0  0  0  0  0
   -1.4520   30.2438    2.1886 N   0  0  0  0  0  4  0  0  0  0  0  0
   -1.8132   29.4400    1.1730 C   0  0  0  0  0  0  0  0  0  0  0  0
   -2.7821   28.4656    1.4004 C   0  0  0  0  0  0  0  0  0  0  0  0
   -3.3277   28.3546    2.6252 N   0  0  0  0  0  4  0  0  0  0  0  0
   -4.2652   26.6743    5.0862 C   0  0  0  0  0  0  0  0  0  0  0  0
   -3.0930   26.1726    5.6770 C   0  0  0  0  0  0  0  0  0  0  0  0
   -2.7194   24.8379    5.4981 C   0  0  0  0  0  0  0  0  0  0  0  0
   -3.5107   23.9843    4.7310 C   0  0  0  0  0  0  0  0  0  0  0  0
   -4.6853   24.4626    4.1615 C   0  0  0  0  0  0  0  0  0  0  0  0
   -5.6613   23.4270    3.2007 Cl  0  0  0  0  0  0  0  0  0  0  0  0
   -5.0702   25.7929    4.3428 C   0  0  0  0  0  0  0  0  0  0  0  0
  2  1  1  1
  2  3  1  0
  3  4  1  0
  4  5  2  0
  5  6  1  0
  6  7  2  0
  7  8  1  0
  8  9  2  0
  2 10  1  0
 10 11  2  0
 11 12  1  0
 12 13  2  0
 13 14  1  0
 14 15  1  0
 14 16  2  0
  9  4  1  0
 16 10  1  0
M  CHG  2   6   1   9   1
M  END
>  <Energy>  (1006) 
139.48004591263566

>  <Energy_Delta>  (1006) 
1.4392651214548096

>  <std_smi>  (1006) 
CC(Nc1cnccn1)c1cccc(Cl)c1

>  <enum_smi>  (1006) 
C[C@@H](Nc1c[nH+]cc[nH+]1)c1cccc(Cl)c1

>  <enum_code>  (1006) 
M

>  <parent_uuid>  (1006) 
6620cc01-fc2b-4cc4-81f0-045e40704b17

>  <o3da_score>  (1006) 
86.300760071043811

>  <o3da_score_rel>  (1006) 
0.34357586498759402

>  <o3da_align>  (1006) 
0.48078288629468097

>  <RMSD>  (1006) 
0.10518864157110742

>  <CONVERGED>  (1006) 
0

>  <ENERGY>  (1006) 
139.73326755826315

$$$$
1162020c-833d-4925-ba41-35f660244195
     RDKit          3D

 16 17  0  0  0  0  0  0  0  0999 V2000
   -2.8973   29.3725    3.8050 C   0  0  0  0  0  0  0  0  0  0  0  0
   -3.7252   29.0490    5.0523 C   0  0  1  0  0  0  0  0  0  0  0  0
   -4.6071   27.8960    4.7552 N   0  0  0  0  0  0  0  0  0  0  0  0
   -4.2557   26.5620    4.6901 C   0  0  0  0  0  0  0  0  0  0  0  0
   -5.2316   25.5706    4.4319 C   0  0  0  0  0  0  0  0  0  0  0  0
   -4.9003   24.2659    4.4711 N   0  0  0  0  0  4  0  0  0  0  0  0
   -3.6536   23.8610    4.7692 C   0  0  0  0  0  0  0  0  0  0  0  0
   -2.6852   24.8218    5.0473 C   0  0  0  0  0  0  0  0  0  0  0  0
   -3.0194   26.1240    5.0034 N   0  0  0  0  0  4  0  0  0  0  0  0
   -2.9533   28.8289    6.3442 C   0  0  0  0  0  0  0  0  0  0  0  0
   -1.5679   29.0360    6.4540 C   0  0  0  0  0  0  0  0  0  0  0  0
   -0.9001   28.7918    7.6588 C   0  0  0  0  0  0  0  0  0  0  0  0
   -1.6027   28.3441    8.7760 C   0  0  0  0  0  0  0  0  0  0  0  0
   -2.9777   28.1638    8.6931 C   0  0  0  0  0  0  0  0  0  0  0  0
   -3.8573   27.5915   10.0521 Cl  0  0  0  0  0  0  0  0  0  0  0  0
   -3.6512   28.4164    7.4969 C   0  0  0  0  0  0  0  0  0  0  0  0
  2  1  1  6
  2  3  1  0
  3  4  1  0
  4  5  2  0
  5  6  1  0
  6  7  2  0
  7  8  1  0
  8  9  2  0
  2 10  1  0
 10 11  2  0
 11 12  1  0
 12 13  2  0
 13 14  1  0
 14 15  1  0
 14 16  2  0
  9  4  1  0
 16 10  1  0
M  CHG  2   6   1   9   1
M  END
>  <Energy>  (1007) 
140.02117036949116

>  <Energy_Delta>  (1007) 
1.9803895783103087

>  <std_smi>  (1007) 
CC(Nc1cnccn1)c1cccc(Cl)c1

>  <enum_smi>  (1007) 
C[C@@H](Nc1c[nH+]cc[nH+]1)c1cccc(Cl)c1

>  <enum_code>  (1007) 
M

>  <parent_uuid>  (1007) 
6620cc01-fc2b-4cc4-81f0-045e40704b17

>  <o3da_score>  (1007) 
70.456565265819762

>  <o3da_score_rel>  (1007) 
0.28049782337179024

>  <o3da_align>  (1007) 
0.21649720291347532

>  <RMSD>  (1007) 
0.00037446899736523888

>  <CONVERGED>  (1007) 
0

>  <ENERGY>  (1007) 
140.02116680038199

$$$$
1162020c-833d-4925-ba41-35f660244195
     RDKit          3D

 16 17  0  0  0  0  0  0  0  0999 V2000
   -2.8898   29.4299    3.8783 C   0  0  0  0  0  0  0  0  0  0  0  0
   -3.7908   29.0650    5.0610 C   0  0  1  0  0  0  0  0  0  0  0  0
   -4.6035   27.8782    4.7054 N   0  0  0  0  0  0  0  0  0  0  0  0
   -4.2125   26.5694    4.6930 C   0  0  0  0  0  0  0  0  0  0  0  0
   -2.9139   26.0763    4.9448 C   0  0  0  0  0  0  0  0  0  0  0  0
   -2.6767   24.7500    4.9329 N   0  0  0  0  0  4  0  0  0  0  0  0
   -3.6475   23.8570    4.6779 C   0  0  0  0  0  0  0  0  0  0  0  0
   -4.9325   24.3232    4.4170 C   0  0  0  0  0  0  0  0  0  0  0  0
   -5.1645   25.6478    4.4328 N   0  0  0  0  0  4  0  0  0  0  0  0
   -3.1245   28.8924    6.4166 C   0  0  0  0  0  0  0  0  0  0  0  0
   -1.7618   29.1541    6.6370 C   0  0  0  0  0  0  0  0  0  0  0  0
   -1.1901   28.9712    7.9010 C   0  0  0  0  0  0  0  0  0  0  0  0
   -1.9687   28.5298    8.9690 C   0  0  0  0  0  0  0  0  0  0  0  0
   -3.3237   28.2930    8.7751 C   0  0  0  0  0  0  0  0  0  0  0  0
   -4.2972   27.7303   10.0734 Cl  0  0  0  0  0  0  0  0  0  0  0  0
   -3.9022   28.4854    7.5190 C   0  0  0  0  0  0  0  0  0  0  0  0
  2  1  1  6
  2  3  1  0
  3  4  1  0
  4  5  2  0
  5  6  1  0
  6  7  2  0
  7  8  1  0
  8  9  2  0
  2 10  1  0
 10 11  2  0
 11 12  1  0
 12 13  2  0
 13 14  1  0
 14 15  1  0
 14 16  2  0
  9  4  1  0
 16 10  1  0
M  CHG  2   6   1   9   1
M  END
>  <Energy>  (1008) 
140.32518742696593

>  <Energy_Delta>  (1008) 
2.284406635785075

>  <std_smi>  (1008) 
CC(Nc1cnccn1)c1cccc(Cl)c1

>  <enum_smi>  (1008) 
C[C@@H](Nc1c[nH+]cc[nH+]1)c1cccc(Cl)c1

>  <enum_code>  (1008) 
M

>  <parent_uuid>  (1008) 
6620cc01-fc2b-4cc4-81f0-045e40704b17

>  <o3da_score>  (1008) 
70.123768922400942

>  <o3da_score_rel>  (1008) 
0.2791729127747028

>  <o3da_align>  (1008) 
0.23871842227566686

>  <RMSD>  (1008) 
6.9298237439337397e-05

>  <CONVERGED>  (1008) 
0

>  <ENERGY>  (1008) 
140.32518723714057

$$$$
1162020c-833d-4925-ba41-35f660244195
     RDKit          3D

 16 17  0  0  0  0  0  0  0  0999 V2000
   -4.0771   29.5305    6.2845 C   0  0  0  0  0  0  0  0  0  0  0  0
   -3.4410   28.9881    5.0044 C   0  0  1  0  0  0  0  0  0  0  0  0
   -4.2886   27.9152    4.4585 N   0  0  0  0  0  0  0  0  0  0  0  0
   -4.1364   26.5800    4.6861 C   0  0  0  0  0  0  0  0  0  0  0  0
   -3.2371   25.9867    5.5969 C   0  0  0  0  0  0  0  0  0  0  0  0
   -3.1897   24.6454    5.7232 N   0  0  0  0  0  4  0  0  0  0  0  0
   -3.9830   23.8351    5.0006 C   0  0  0  0  0  0  0  0  0  0  0  0
   -4.8785   24.4042    4.0991 C   0  0  0  0  0  0  0  0  0  0  0  0
   -4.9223   25.7426    3.9778 N   0  0  0  0  0  4  0  0  0  0  0  0
   -3.2442   30.0061    3.8963 C   0  0  0  0  0  0  0  0  0  0  0  0
   -4.0556   31.1423    3.7463 C   0  0  0  0  0  0  0  0  0  0  0  0
   -3.8563   32.0291    2.6827 C   0  0  0  0  0  0  0  0  0  0  0  0
   -2.8528   31.7910    1.7455 C   0  0  0  0  0  0  0  0  0  0  0  0
   -2.0482   30.6659    1.8760 C   0  0  0  0  0  0  0  0  0  0  0  0
   -0.8189   30.3431    0.7192 Cl  0  0  0  0  0  0  0  0  0  0  0  0
   -2.2381   29.7793    2.9382 C   0  0  0  0  0  0  0  0  0  0  0  0
  2  1  1  1
  2  3  1  0
  3  4  1  0
  4  5  2  0
  5  6  1  0
  6  7  2  0
  7  8  1  0
  8  9  2  0
  2 10  1  0
 10 11  2  0
 11 12  1  0
 12 13  2  0
 13 14  1  0
 14 15  1  0
 14 16  2  0
  9  4  1  0
 16 10  1  0
M  CHG  2   6   1   9   1
M  END
>  <Energy>  (1009) 
141.31961614337308

>  <Energy_Delta>  (1009) 
3.2788353521922318

>  <std_smi>  (1009) 
CC(Nc1cnccn1)c1cccc(Cl)c1

>  <enum_smi>  (1009) 
C[C@@H](Nc1c[nH+]cc[nH+]1)c1cccc(Cl)c1

>  <enum_code>  (1009) 
M

>  <parent_uuid>  (1009) 
6620cc01-fc2b-4cc4-81f0-045e40704b17

>  <o3da_score>  (1009) 
78.077477564243893

>  <o3da_score_rel>  (1009) 
0.31083778251896577

>  <o3da_align>  (1009) 
0.51930939684297328

>  <RMSD>  (1009) 
7.5368936131527467e-05

>  <CONVERGED>  (1009) 
0

>  <ENERGY>  (1009) 
141.31961609172708

$$$$
1162020c-833d-4925-ba41-35f660244195
     RDKit          3D

 16 17  0  0  0  0  0  0  0  0999 V2000
   -2.8403   29.3394    3.7637 C   0  0  0  0  0  0  0  0  0  0  0  0
   -3.7129   29.0822    4.9957 C   0  0  1  0  0  0  0  0  0  0  0  0
   -4.5995   27.9258    4.7284 N   0  0  0  0  0  0  0  0  0  0  0  0
   -4.2501   26.5894    4.6997 C   0  0  0  0  0  0  0  0  0  0  0  0
   -5.2167   25.5961    4.4142 C   0  0  0  0  0  0  0  0  0  0  0  0
   -4.8876   24.2916    4.4747 N   0  0  0  0  0  4  0  0  0  0  0  0
   -3.6531   23.8882    4.8221 C   0  0  0  0  0  0  0  0  0  0  0  0
   -2.6963   24.8507    5.1321 C   0  0  0  0  0  0  0  0  0  0  0  0
   -3.0287   26.1524    5.0665 N   0  0  0  0  0  4  0  0  0  0  0  0
   -2.9926   28.9218    6.3247 C   0  0  0  0  0  0  0  0  0  0  0  0
   -3.7491   28.6892    7.4898 C   0  0  0  0  0  0  0  0  0  0  0  0
   -3.1311   28.5172    8.7309 C   0  0  0  0  0  0  0  0  0  0  0  0
   -1.7438   28.5792    8.8342 C   0  0  0  0  0  0  0  0  0  0  0  0
   -0.9830   28.8337    7.6989 C   0  0  0  0  0  0  0  0  0  0  0  0
    0.7301   28.8928    7.8091 Cl  0  0  0  0  0  0  0  0  0  0  0  0
   -1.5962   29.0152    6.4551 C   0  0  0  0  0  0  0  0  0  0  0  0
  2  1  1  6
  2  3  1  0
  3  4  1  0
  4  5  2  0
  5  6  1  0
  6  7  2  0
  7  8  1  0
  8  9  2  0
  2 10  1  0
 10 11  2  0
 11 12  1  0
 12 13  2  0
 13 14  1  0
 14 15  1  0
 14 16  2  0
  9  4  1  0
 16 10  1  0
M  CHG  2   6   1   9   1
M  END
>  <Energy>  (1010) 
141.53451434787968

>  <Energy_Delta>  (1010) 
3.4937335566988281

>  <std_smi>  (1010) 
CC(Nc1cnccn1)c1cccc(Cl)c1

>  <enum_smi>  (1010) 
C[C@@H](Nc1c[nH+]cc[nH+]1)c1cccc(Cl)c1

>  <enum_code>  (1010) 
M

>  <parent_uuid>  (1010) 
6620cc01-fc2b-4cc4-81f0-045e40704b17

>  <o3da_score>  (1010) 
70.751887786577868

>  <o3da_score_rel>  (1010) 
0.28167354523607341

>  <o3da_align>  (1010) 
0.19772363432704404

>  <RMSD>  (1010) 
0.082667072048801957

>  <CONVERGED>  (1010) 
0

>  <ENERGY>  (1010) 
140.93793365357178

$$$$
1162020c-833d-4925-ba41-35f660244195
     RDKit          3D

 16 17  0  0  0  0  0  0  0  0999 V2000
   -2.5765   28.8141    6.1631 C   0  0  0  0  0  0  0  0  0  0  0  0
   -3.5657   29.2094    5.0652 C   0  0  1  0  0  0  0  0  0  0  0  0
   -2.8449   29.4847    3.8110 N   0  0  0  0  0  0  0  0  0  0  0  0
   -2.2630   30.6671    3.4623 C   0  0  0  0  0  0  0  0  0  0  0  0
   -2.2141   31.8364    4.2498 C   0  0  0  0  0  0  0  0  0  0  0  0
   -1.6032   32.9426    3.7803 N   0  0  0  0  0  4  0  0  0  0  0  0
   -1.0284   32.9753    2.5651 C   0  0  0  0  0  0  0  0  0  0  0  0
   -1.0688   31.8304    1.7739 C   0  0  0  0  0  0  0  0  0  0  0  0
   -1.6787   30.7296    2.2475 N   0  0  0  0  0  4  0  0  0  0  0  0
   -4.6012   28.1389    4.7745 C   0  0  0  0  0  0  0  0  0  0  0  0
   -5.9512   28.4971    4.6143 C   0  0  0  0  0  0  0  0  0  0  0  0
   -6.9183   27.5328    4.3157 C   0  0  0  0  0  0  0  0  0  0  0  0
   -6.5523   26.1972    4.1618 C   0  0  0  0  0  0  0  0  0  0  0  0
   -5.2196   25.8297    4.3095 C   0  0  0  0  0  0  0  0  0  0  0  0
   -4.7519   24.1889    4.1026 Cl  0  0  0  0  0  0  0  0  0  0  0  0
   -4.2483   26.7871    4.6125 C   0  0  0  0  0  0  0  0  0  0  0  0
  2  1  1  1
  2  3  1  0
  3  4  1  0
  4  5  2  0
  5  6  1  0
  6  7  2  0
  7  8  1  0
  8  9  2  0
  2 10  1  0
 10 11  2  0
 11 12  1  0
 12 13  2  0
 13 14  1  0
 14 15  1  0
 14 16  2  0
  9  4  1  0
 16 10  1  0
M  CHG  2   6   1   9   1
M  END
>  <Energy>  (1011) 
141.87230521363404

>  <Energy_Delta>  (1011) 
3.8315244224531853

>  <std_smi>  (1011) 
CC(Nc1cnccn1)c1cccc(Cl)c1

>  <enum_smi>  (1011) 
C[C@@H](Nc1c[nH+]cc[nH+]1)c1cccc(Cl)c1

>  <enum_code>  (1011) 
M

>  <parent_uuid>  (1011) 
6620cc01-fc2b-4cc4-81f0-045e40704b17

>  <o3da_score>  (1011) 
77.075947201432612

>  <o3da_score_rel>  (1011) 
0.3068505446263799

>  <o3da_align>  (1011) 
0.38698799786039428

>  <RMSD>  (1011) 
6.8535285709671396e-05

>  <CONVERGED>  (1011) 
0

>  <ENERGY>  (1011) 
141.87230516210798

$$$$
1162020c-833d-4925-ba41-35f660244195
     RDKit          3D

 16 17  0  0  0  0  0  0  0  0999 V2000
   -3.6751   29.0995    6.7014 C   0  0  0  0  0  0  0  0  0  0  0  0
   -3.5748   28.9477    5.1823 C   0  0  1  0  0  0  0  0  0  0  0  0
   -4.4699   27.8729    4.7302 N   0  0  0  0  0  0  0  0  0  0  0  0
   -4.2280   26.5213    4.7774 C   0  0  0  0  0  0  0  0  0  0  0  0
   -5.1420   25.5997    4.2168 C   0  0  0  0  0  0  0  0  0  0  0  0
   -4.8541   24.2846    4.2013 N   0  0  0  0  0  4  0  0  0  0  0  0
   -3.6992   23.8078    4.6976 C   0  0  0  0  0  0  0  0  0  0  0  0
   -2.7779   24.7048    5.2345 C   0  0  0  0  0  0  0  0  0  0  0  0
   -3.0681   26.0196    5.2471 N   0  0  0  0  0  4  0  0  0  0  0  0
   -3.9318   30.1848    4.3804 C   0  0  0  0  0  0  0  0  0  0  0  0
   -4.7241   31.2295    4.8829 C   0  0  0  0  0  0  0  0  0  0  0  0
   -5.0443   32.3337    4.0851 C   0  0  0  0  0  0  0  0  0  0  0  0
   -4.5884   32.4096    2.7705 C   0  0  0  0  0  0  0  0  0  0  0  0
   -3.8108   31.3797    2.2562 C   0  0  0  0  0  0  0  0  0  0  0  0
   -3.2530   31.4461    0.6319 Cl  0  0  0  0  0  0  0  0  0  0  0  0
   -3.4835   30.2774    3.0485 C   0  0  0  0  0  0  0  0  0  0  0  0
  2  1  1  1
  2  3  1  0
  3  4  1  0
  4  5  2  0
  5  6  1  0
  6  7  2  0
  7  8  1  0
  8  9  2  0
  2 10  1  0
 10 11  2  0
 11 12  1  0
 12 13  2  0
 13 14  1  0
 14 15  1  0
 14 16  2  0
  9  4  1  0
 16 10  1  0
M  CHG  2   6   1   9   1
M  END
>  <Energy>  (1012) 
144.69079995939109

>  <Energy_Delta>  (1012) 
6.6500191682102354

>  <std_smi>  (1012) 
CC(Nc1cnccn1)c1cccc(Cl)c1

>  <enum_smi>  (1012) 
C[C@@H](Nc1c[nH+]cc[nH+]1)c1cccc(Cl)c1

>  <enum_code>  (1012) 
M

>  <parent_uuid>  (1012) 
6620cc01-fc2b-4cc4-81f0-045e40704b17

>  <o3da_score>  (1012) 
69.317474875670783

>  <o3da_score_rel>  (1012) 
0.27596293902346797

>  <o3da_align>  (1012) 
0.34256790888136562

>  <RMSD>  (1012) 
0.00020682396046311561

>  <CONVERGED>  (1012) 
0

>  <ENERGY>  (1012) 
144.69079941970924

$$$$
1162020c-833d-4925-ba41-35f660244195
     RDKit          3D

 16 17  0  0  0  0  0  0  0  0999 V2000
   -2.3814   28.9315    5.5646 C   0  0  0  0  0  0  0  0  0  0  0  0
   -3.4384   29.0600    4.4662 C   0  0  1  0  0  0  0  0  0  0  0  0
   -2.8175   28.9449    3.1346 N   0  0  0  0  0  0  0  0  0  0  0  0
   -2.0875   29.9237    2.4938 C   0  0  0  0  0  0  0  0  0  0  0  0
   -1.4816   29.6661    1.2418 C   0  0  0  0  0  0  0  0  0  0  0  0
   -0.7122   30.6029    0.6563 N   0  0  0  0  0  4  0  0  0  0  0  0
   -0.4844   31.7940    1.2364 C   0  0  0  0  0  0  0  0  0  0  0  0
   -1.0587   32.0571    2.4784 C   0  0  0  0  0  0  0  0  0  0  0  0
   -1.8274   31.1181    3.0623 N   0  0  0  0  0  4  0  0  0  0  0  0
   -4.5030   27.9867    4.5906 C   0  0  0  0  0  0  0  0  0  0  0  0
   -5.8509   28.3422    4.7627 C   0  0  0  0  0  0  0  0  0  0  0  0
   -6.8408   27.3598    4.8608 C   0  0  0  0  0  0  0  0  0  0  0  0
   -6.5012   26.0099    4.7839 C   0  0  0  0  0  0  0  0  0  0  0  0
   -5.1706   25.6451    4.6125 C   0  0  0  0  0  0  0  0  0  0  0  0
   -4.7394   23.9853    4.5023 Cl  0  0  0  0  0  0  0  0  0  0  0  0
   -4.1759   26.6203    4.5174 C   0  0  0  0  0  0  0  0  0  0  0  0
  2  1  1  1
  2  3  1  0
  3  4  1  0
  4  5  2  0
  5  6  1  0
  6  7  2  0
  7  8  1  0
  8  9  2  0
  2 10  1  0
 10 11  2  0
 11 12  1  0
 12 13  2  0
 13 14  1  0
 14 15  1  0
 14 16  2  0
  9  4  1  0
 16 10  1  0
M  CHG  2   6   1   9   1
M  END
>  <Energy>  (1013) 
144.8515208772381

>  <Energy_Delta>  (1013) 
6.8107400860572511

>  <std_smi>  (1013) 
CC(Nc1cnccn1)c1cccc(Cl)c1

>  <enum_smi>  (1013) 
C[C@@H](Nc1c[nH+]cc[nH+]1)c1cccc(Cl)c1

>  <enum_code>  (1013) 
M

>  <parent_uuid>  (1013) 
6620cc01-fc2b-4cc4-81f0-045e40704b17

>  <o3da_score>  (1013) 
72.870951779773648

>  <o3da_score_rel>  (1013) 
0.29010984688425079

>  <o3da_align>  (1013) 
0.49598000180653345

>  <RMSD>  (1013) 
7.7042779009103588e-05

>  <CONVERGED>  (1013) 
0

>  <ENERGY>  (1013) 
144.85152083712214

$$$$
a7cd2696-28f1-4c2f-8d48-1e7dd8448d62
     RDKit          3D

 16 17  0  0  0  0  0  0  0  0999 V2000
   -5.5137   28.2267    6.3700 C   0  0  0  0  0  0  0  0  0  0  0  0
   -4.8289   28.1292    5.0069 C   0  0  1  0  0  0  0  0  0  0  0  0
   -3.7681   29.1361    4.9244 N   0  0  0  0  0  0  0  0  0  0  0  0
   -2.9881   29.3826    3.8085 C   0  0  0  0  0  0  0  0  0  0  0  0
   -2.0523   30.4290    3.7836 C   0  0  0  0  0  0  0  0  0  0  0  0
   -1.2866   30.7303    2.7088 N   0  0  0  0  0  0  0  0  0  0  0  0
   -1.4632   29.9777    1.6075 C   0  0  0  0  0  0  0  0  0  0  0  0
   -2.3836   28.9474    1.5639 C   0  0  0  0  0  0  0  0  0  0  0  0
   -3.1205   28.6904    2.6601 N   0  0  0  0  0  4  0  0  0  0  0  0
   -4.3033   26.7261    4.7645 C   0  0  0  0  0  0  0  0  0  0  0  0
   -5.0334   25.8435    3.9489 C   0  0  0  0  0  0  0  0  0  0  0  0
   -4.5649   24.5521    3.6965 C   0  0  0  0  0  0  0  0  0  0  0  0
   -3.3653   24.1206    4.2601 C   0  0  0  0  0  0  0  0  0  0  0  0
   -2.6449   24.9771    5.0867 C   0  0  0  0  0  0  0  0  0  0  0  0
   -1.1651   24.4524    5.7850 Cl  0  0  0  0  0  0  0  0  0  0  0  0
   -3.1089   26.2679    5.3464 C   0  0  0  0  0  0  0  0  0  0  0  0
  2  1  1  1
  2  3  1  0
  3  4  1  0
  4  5  2  0
  5  6  1  0
  6  7  2  0
  7  8  1  0
  8  9  2  0
  2 10  1  0
 10 11  2  0
 11 12  1  0
 12 13  2  0
 13 14  1  0
 14 15  1  0
 14 16  2  0
  9  4  1  0
 16 10  1  0
M  CHG  1   9   1
M  END
>  <Energy>  (1014) 
70.008712564343384

>  <Energy_Delta>  (1014) 
0

>  <std_smi>  (1014) 
CC(Nc1cnccn1)c1cccc(Cl)c1

>  <enum_smi>  (1014) 
C[C@@H](Nc1cncc[nH+]1)c1cccc(Cl)c1

>  <enum_code>  (1014) 
M

>  <parent_uuid>  (1014) 
6620cc01-fc2b-4cc4-81f0-045e40704b17

>  <o3da_score>  (1014) 
97.808948595547932

>  <o3da_score_rel>  (1014) 
0.38939163559600903

>  <o3da_align>  (1014) 
0.40293160582514331

>  <RMSD>  (1014) 
0.11204200544526365

>  <CONVERGED>  (1014) 
0

>  <ENERGY>  (1014) 
70.79498461739756

$$$$
a7cd2696-28f1-4c2f-8d48-1e7dd8448d62
     RDKit          3D

 16 17  0  0  0  0  0  0  0  0999 V2000
   -4.2964   30.2931    5.2639 C   0  0  0  0  0  0  0  0  0  0  0  0
   -3.6820   28.9838    4.7605 C   0  0  1  0  0  0  0  0  0  0  0  0
   -4.6576   27.8946    4.9437 N   0  0  0  0  0  0  0  0  0  0  0  0
   -4.2640   26.5782    4.8112 C   0  0  0  0  0  0  0  0  0  0  0  0
   -3.0003   26.0551    5.1239 C   0  0  0  0  0  0  0  0  0  0  0  0
   -2.6707   24.7474    4.9899 N   0  0  0  0  0  0  0  0  0  0  0  0
   -3.6319   23.9193    4.5432 C   0  0  0  0  0  0  0  0  0  0  0  0
   -4.9021   24.3702    4.2401 C   0  0  0  0  0  0  0  0  0  0  0  0
   -5.1765   25.6785    4.3906 N   0  0  0  0  0  4  0  0  0  0  0  0
   -3.2836   29.0719    3.2978 C   0  0  0  0  0  0  0  0  0  0  0  0
   -1.9455   28.8660    2.9221 C   0  0  0  0  0  0  0  0  0  0  0  0
   -1.5638   28.9156    1.5787 C   0  0  0  0  0  0  0  0  0  0  0  0
   -2.5126   29.1690    0.5899 C   0  0  0  0  0  0  0  0  0  0  0  0
   -3.8398   29.3793    0.9493 C   0  0  0  0  0  0  0  0  0  0  0  0
   -5.0217   29.6780   -0.2632 Cl  0  0  0  0  0  0  0  0  0  0  0  0
   -4.2276   29.3364    2.2899 C   0  0  0  0  0  0  0  0  0  0  0  0
  2  1  1  6
  2  3  1  0
  3  4  1  0
  4  5  2  0
  5  6  1  0
  6  7  2  0
  7  8  1  0
  8  9  2  0
  2 10  1  0
 10 11  2  0
 11 12  1  0
 12 13  2  0
 13 14  1  0
 14 15  1  0
 14 16  2  0
  9  4  1  0
 16 10  1  0
M  CHG  1   9   1
M  END
>  <Energy>  (1015) 
70.266732340112924

>  <Energy_Delta>  (1015) 
0.25801977576954016

>  <std_smi>  (1015) 
CC(Nc1cnccn1)c1cccc(Cl)c1

>  <enum_smi>  (1015) 
C[C@@H](Nc1cncc[nH+]1)c1cccc(Cl)c1

>  <enum_code>  (1015) 
M

>  <parent_uuid>  (1015) 
6620cc01-fc2b-4cc4-81f0-045e40704b17

>  <o3da_score>  (1015) 
82.351979803464118

>  <o3da_score_rel>  (1015) 
0.32785519700086041

>  <o3da_align>  (1015) 
0.29429225988944524

>  <RMSD>  (1015) 
7.6857364000969014e-05

>  <CONVERGED>  (1015) 
0

>  <ENERGY>  (1015) 
70.266732325778804

$$$$
a7cd2696-28f1-4c2f-8d48-1e7dd8448d62
     RDKit          3D

 16 17  0  0  0  0  0  0  0  0999 V2000
   -4.1648   30.2498    5.5156 C   0  0  0  0  0  0  0  0  0  0  0  0
   -3.6379   28.9857    4.8296 C   0  0  1  0  0  0  0  0  0  0  0  0
   -4.6485   27.9196    4.9632 N   0  0  0  0  0  0  0  0  0  0  0  0
   -4.2519   26.6015    4.8247 C   0  0  0  0  0  0  0  0  0  0  0  0
   -3.0762   26.0410    5.3457 C   0  0  0  0  0  0  0  0  0  0  0  0
   -2.7296   24.7407    5.1910 N   0  0  0  0  0  0  0  0  0  0  0  0
   -3.5870   23.9576    4.5119 C   0  0  0  0  0  0  0  0  0  0  0  0
   -4.7734   24.4456    3.9985 C   0  0  0  0  0  0  0  0  0  0  0  0
   -5.0688   25.7458    4.1778 N   0  0  0  0  0  4  0  0  0  0  0  0
   -3.3358   29.1831    3.3529 C   0  0  0  0  0  0  0  0  0  0  0  0
   -4.2255   29.8424    2.4868 C   0  0  0  0  0  0  0  0  0  0  0  0
   -3.9351   29.9724    1.1256 C   0  0  0  0  0  0  0  0  0  0  0  0
   -2.7579   29.4375    0.6059 C   0  0  0  0  0  0  0  0  0  0  0  0
   -1.8714   28.7780    1.4507 C   0  0  0  0  0  0  0  0  0  0  0  0
   -0.4256   28.0992    0.8151 Cl  0  0  0  0  0  0  0  0  0  0  0  0
   -2.1519   28.6499    2.8123 C   0  0  0  0  0  0  0  0  0  0  0  0
  2  1  1  6
  2  3  1  0
  3  4  1  0
  4  5  2  0
  5  6  1  0
  6  7  2  0
  7  8  1  0
  8  9  2  0
  2 10  1  0
 10 11  2  0
 11 12  1  0
 12 13  2  0
 13 14  1  0
 14 15  1  0
 14 16  2  0
  9  4  1  0
 16 10  1  0
M  CHG  1   9   1
M  END
>  <Energy>  (1016) 
70.71195384160329

>  <Energy_Delta>  (1016) 
0.70324127725990593

>  <std_smi>  (1016) 
CC(Nc1cnccn1)c1cccc(Cl)c1

>  <enum_smi>  (1016) 
C[C@@H](Nc1cncc[nH+]1)c1cccc(Cl)c1

>  <enum_code>  (1016) 
M

>  <parent_uuid>  (1016) 
6620cc01-fc2b-4cc4-81f0-045e40704b17

>  <o3da_score>  (1016) 
85.19778901451825

>  <o3da_score_rel>  (1016) 
0.3391847769544169

>  <o3da_align>  (1016) 
0.22240672376741641

>  <RMSD>  (1016) 
6.5332781375493839e-05

>  <CONVERGED>  (1016) 
0

>  <ENERGY>  (1016) 
70.711953813912857

$$$$
a7cd2696-28f1-4c2f-8d48-1e7dd8448d62
     RDKit          3D

 16 17  0  0  0  0  0  0  0  0999 V2000
   -2.4906   28.4730    6.1840 C   0  0  0  0  0  0  0  0  0  0  0  0
   -3.5016   29.0234    5.1760 C   0  0  1  0  0  0  0  0  0  0  0  0
   -2.7935   29.5253    3.9943 N   0  0  0  0  0  0  0  0  0  0  0  0
   -2.3273   30.8027    3.8593 C   0  0  0  0  0  0  0  0  0  0  0  0
   -2.3421   31.8125    4.8313 C   0  0  0  0  0  0  0  0  0  0  0  0
   -1.8616   33.0633    4.6266 N   0  0  0  0  0  0  0  0  0  0  0  0
   -1.3449   33.3287    3.4133 C   0  0  0  0  0  0  0  0  0  0  0  0
   -1.3003   32.3752    2.4149 C   0  0  0  0  0  0  0  0  0  0  0  0
   -1.7903   31.1494    2.6718 N   0  0  0  0  0  4  0  0  0  0  0  0
   -4.5279   28.0137    4.6860 C   0  0  0  0  0  0  0  0  0  0  0  0
   -4.2740   26.6341    4.6166 C   0  0  0  0  0  0  0  0  0  0  0  0
   -5.2410   25.7521    4.1238 C   0  0  0  0  0  0  0  0  0  0  0  0
   -6.4716   26.2339    3.6815 C   0  0  0  0  0  0  0  0  0  0  0  0
   -6.7324   27.5987    3.7330 C   0  0  0  0  0  0  0  0  0  0  0  0
   -8.2398   28.2070    3.1728 Cl  0  0  0  0  0  0  0  0  0  0  0  0
   -5.7731   28.4840    4.2274 C   0  0  0  0  0  0  0  0  0  0  0  0
  2  1  1  1
  2  3  1  0
  3  4  1  0
  4  5  2  0
  5  6  1  0
  6  7  2  0
  7  8  1  0
  8  9  2  0
  2 10  1  0
 10 11  2  0
 11 12  1  0
 12 13  2  0
 13 14  1  0
 14 15  1  0
 14 16  2  0
  9  4  1  0
 16 10  1  0
M  CHG  1   9   1
M  END
>  <Energy>  (1017) 
71.389543231754672

>  <Energy_Delta>  (1017) 
1.3808306674112885

>  <std_smi>  (1017) 
CC(Nc1cnccn1)c1cccc(Cl)c1

>  <enum_smi>  (1017) 
C[C@@H](Nc1cncc[nH+]1)c1cccc(Cl)c1

>  <enum_code>  (1017) 
M

>  <parent_uuid>  (1017) 
6620cc01-fc2b-4cc4-81f0-045e40704b17

>  <o3da_score>  (1017) 
73.389911817410365

>  <o3da_score_rel>  (1017) 
0.29217590219683726

>  <o3da_align>  (1017) 
0.33082704522427919

>  <RMSD>  (1017) 
6.0021847693654766e-05

>  <CONVERGED>  (1017) 
0

>  <ENERGY>  (1017) 
71.389543222762299

$$$$
a7cd2696-28f1-4c2f-8d48-1e7dd8448d62
     RDKit          3D

 16 17  0  0  0  0  0  0  0  0999 V2000
   -3.9477   29.2166    6.5950 C   0  0  0  0  0  0  0  0  0  0  0  0
   -3.4527   28.9043    5.1810 C   0  0  1  0  0  0  0  0  0  0  0  0
   -4.3133   27.8951    4.5565 N   0  0  0  0  0  0  0  0  0  0  0  0
   -4.1634   26.5463    4.7167 C   0  0  0  0  0  0  0  0  0  0  0  0
   -3.2107   25.8920    5.5100 C   0  0  0  0  0  0  0  0  0  0  0  0
   -3.1184   24.5443    5.6202 N   0  0  0  0  0  0  0  0  0  0  0  0
   -4.0020   23.8116    4.9189 C   0  0  0  0  0  0  0  0  0  0  0  0
   -4.9639   24.3976    4.1194 C   0  0  0  0  0  0  0  0  0  0  0  0
   -5.0111   25.7396    4.0461 N   0  0  0  0  0  4  0  0  0  0  0  0
   -3.4345   30.1186    4.2662 C   0  0  0  0  0  0  0  0  0  0  0  0
   -2.3504   30.3110    3.3914 C   0  0  0  0  0  0  0  0  0  0  0  0
   -2.3183   31.4004    2.5168 C   0  0  0  0  0  0  0  0  0  0  0  0
   -3.3738   32.3095    2.4933 C   0  0  0  0  0  0  0  0  0  0  0  0
   -4.4582   32.1249    3.3449 C   0  0  0  0  0  0  0  0  0  0  0  0
   -5.7744   33.2313    3.3085 Cl  0  0  0  0  0  0  0  0  0  0  0  0
   -4.4954   31.0401    4.2239 C   0  0  0  0  0  0  0  0  0  0  0  0
  2  1  1  1
  2  3  1  0
  3  4  1  0
  4  5  2  0
  5  6  1  0
  6  7  2  0
  7  8  1  0
  8  9  2  0
  2 10  1  0
 10 11  2  0
 11 12  1  0
 12 13  2  0
 13 14  1  0
 14 15  1  0
 14 16  2  0
  9  4  1  0
 16 10  1  0
M  CHG  1   9   1
M  END
>  <Energy>  (1018) 
71.496931227274942

>  <Energy_Delta>  (1018) 
1.4882186629315584

>  <std_smi>  (1018) 
CC(Nc1cnccn1)c1cccc(Cl)c1

>  <enum_smi>  (1018) 
C[C@@H](Nc1cncc[nH+]1)c1cccc(Cl)c1

>  <enum_code>  (1018) 
M

>  <parent_uuid>  (1018) 
6620cc01-fc2b-4cc4-81f0-045e40704b17

>  <o3da_score>  (1018) 
76.707174484204813

>  <o3da_score_rel>  (1018) 
0.30538240685794005

>  <o3da_align>  (1018) 
0.52057672735722549

>  <RMSD>  (1018) 
6.6798912369406946e-05

>  <CONVERGED>  (1018) 
0

>  <ENERGY>  (1018) 
71.496931217231932

$$$$
a7cd2696-28f1-4c2f-8d48-1e7dd8448d62
     RDKit          3D

 16 17  0  0  0  0  0  0  0  0999 V2000
   -2.8765   29.2940    3.6916 C   0  0  0  0  0  0  0  0  0  0  0  0
   -3.6963   29.0688    4.9663 C   0  0  1  0  0  0  0  0  0  0  0  0
   -4.5806   27.9133    4.7633 N   0  0  0  0  0  0  0  0  0  0  0  0
   -4.2353   26.5757    4.7757 C   0  0  0  0  0  0  0  0  0  0  0  0
   -5.1728   25.5741    4.4736 C   0  0  0  0  0  0  0  0  0  0  0  0
   -4.8822   24.2522    4.4400 N   0  0  0  0  0  0  0  0  0  0  0  0
   -3.6079   23.9048    4.6962 C   0  0  0  0  0  0  0  0  0  0  0  0
   -2.6351   24.8450    4.9781 C   0  0  0  0  0  0  0  0  0  0  0  0
   -2.9790   26.1456    5.0001 N   0  0  0  0  0  4  0  0  0  0  0  0
   -2.9192   28.9560    6.2696 C   0  0  0  0  0  0  0  0  0  0  0  0
   -3.6173   28.7420    7.4741 C   0  0  0  0  0  0  0  0  0  0  0  0
   -2.9410   28.6171    8.6905 C   0  0  0  0  0  0  0  0  0  0  0  0
   -1.5526   28.7126    8.7304 C   0  0  0  0  0  0  0  0  0  0  0  0
   -0.8487   28.9482    7.5551 C   0  0  0  0  0  0  0  0  0  0  0  0
    0.8661   29.0594    7.5908 Cl  0  0  0  0  0  0  0  0  0  0  0  0
   -1.5201   29.0775    6.3352 C   0  0  0  0  0  0  0  0  0  0  0  0
  2  1  1  6
  2  3  1  0
  3  4  1  0
  4  5  2  0
  5  6  1  0
  6  7  2  0
  7  8  1  0
  8  9  2  0
  2 10  1  0
 10 11  2  0
 11 12  1  0
 12 13  2  0
 13 14  1  0
 14 15  1  0
 14 16  2  0
  9  4  1  0
 16 10  1  0
M  CHG  1   9   1
M  END
>  <Energy>  (1019) 
71.912850672809824

>  <Energy_Delta>  (1019) 
1.9041381084664408

>  <std_smi>  (1019) 
CC(Nc1cnccn1)c1cccc(Cl)c1

>  <enum_smi>  (1019) 
C[C@@H](Nc1cncc[nH+]1)c1cccc(Cl)c1

>  <enum_code>  (1019) 
M

>  <parent_uuid>  (1019) 
6620cc01-fc2b-4cc4-81f0-045e40704b17

>  <o3da_score>  (1019) 
71.83881016009552

>  <o3da_score_rel>  (1019) 
0.28600074113038854

>  <o3da_align>  (1019) 
0.16084710785640788

>  <RMSD>  (1019) 
0.097909136974965116

>  <CONVERGED>  (1019) 
0

>  <ENERGY>  (1019) 
72.908616341497066

$$$$
a7cd2696-28f1-4c2f-8d48-1e7dd8448d62
     RDKit          3D

 16 17  0  0  0  0  0  0  0  0999 V2000
   -2.8741   29.2379    3.7953 C   0  0  0  0  0  0  0  0  0  0  0  0
   -3.7332   29.0305    5.0471 C   0  0  1  0  0  0  0  0  0  0  0  0
   -4.6415   27.8901    4.8298 N   0  0  0  0  0  0  0  0  0  0  0  0
   -4.2656   26.5585    4.7319 C   0  0  0  0  0  0  0  0  0  0  0  0
   -5.1589   25.5766    4.2691 C   0  0  0  0  0  0  0  0  0  0  0  0
   -4.8663   24.2563    4.2075 N   0  0  0  0  0  0  0  0  0  0  0  0
   -3.6561   23.8817    4.6595 C   0  0  0  0  0  0  0  0  0  0  0  0
   -2.7500   24.7934    5.1668 C   0  0  0  0  0  0  0  0  0  0  0  0
   -3.0863   26.0960    5.1916 N   0  0  0  0  0  4  0  0  0  0  0  0
   -2.9916   28.9102    6.3702 C   0  0  0  0  0  0  0  0  0  0  0  0
   -1.6069   29.1165    6.4926 C   0  0  0  0  0  0  0  0  0  0  0  0
   -0.9682   28.9813    7.7295 C   0  0  0  0  0  0  0  0  0  0  0  0
   -1.7011   28.6482    8.8669 C   0  0  0  0  0  0  0  0  0  0  0  0
   -3.0755   28.4652    8.7686 C   0  0  0  0  0  0  0  0  0  0  0  0
   -3.9883   28.0506   10.1636 Cl  0  0  0  0  0  0  0  0  0  0  0  0
   -3.7185   28.6016    7.5376 C   0  0  0  0  0  0  0  0  0  0  0  0
  2  1  1  6
  2  3  1  0
  3  4  1  0
  4  5  2  0
  5  6  1  0
  6  7  2  0
  7  8  1  0
  8  9  2  0
  2 10  1  0
 10 11  2  0
 11 12  1  0
 12 13  2  0
 13 14  1  0
 14 15  1  0
 14 16  2  0
  9  4  1  0
 16 10  1  0
M  CHG  1   9   1
M  END
>  <Energy>  (1020) 
72.75242971962814

>  <Energy_Delta>  (1020) 
2.7437171552847559

>  <std_smi>  (1020) 
CC(Nc1cnccn1)c1cccc(Cl)c1

>  <enum_smi>  (1020) 
C[C@@H](Nc1cncc[nH+]1)c1cccc(Cl)c1

>  <enum_code>  (1020) 
M

>  <parent_uuid>  (1020) 
6620cc01-fc2b-4cc4-81f0-045e40704b17

>  <o3da_score>  (1020) 
71.455428884352074

>  <o3da_score_rel>  (1020) 
0.28447444456793458

>  <o3da_align>  (1020) 
0.19384913969616643

>  <RMSD>  (1020) 
0.075112802539782142

>  <CONVERGED>  (1020) 
0

>  <ENERGY>  (1020) 
71.775003541551328

$$$$
a7cd2696-28f1-4c2f-8d48-1e7dd8448d62
     RDKit          3D

 16 17  0  0  0  0  0  0  0  0999 V2000
   -2.7573   29.3225    3.9415 C   0  0  0  0  0  0  0  0  0  0  0  0
   -3.7629   29.0502    5.0635 C   0  0  1  0  0  0  0  0  0  0  0  0
   -4.6032   27.8885    4.7219 N   0  0  0  0  0  0  0  0  0  0  0  0
   -4.2228   26.5744    4.7248 C   0  0  0  0  0  0  0  0  0  0  0  0
   -2.9543   26.0516    5.0149 C   0  0  0  0  0  0  0  0  0  0  0  0
   -2.6558   24.7282    4.9909 N   0  0  0  0  0  0  0  0  0  0  0  0
   -3.6521   23.8824    4.6785 C   0  0  0  0  0  0  0  0  0  0  0  0
   -4.9239   24.3331    4.3882 C   0  0  0  0  0  0  0  0  0  0  0  0
   -5.1638   25.6561    4.4190 N   0  0  0  0  0  4  0  0  0  0  0  0
   -3.2300   28.9571    6.4834 C   0  0  0  0  0  0  0  0  0  0  0  0
   -1.8703   29.1089    6.8015 C   0  0  0  0  0  0  0  0  0  0  0  0
   -1.4268   29.0152    8.1250 C   0  0  0  0  0  0  0  0  0  0  0  0
   -2.3336   28.7767    9.1556 C   0  0  0  0  0  0  0  0  0  0  0  0
   -3.6849   28.6426    8.8604 C   0  0  0  0  0  0  0  0  0  0  0  0
   -4.8169   28.3478   10.1205 Cl  0  0  0  0  0  0  0  0  0  0  0  0
   -4.1336   28.7391    7.5421 C   0  0  0  0  0  0  0  0  0  0  0  0
  2  1  1  6
  2  3  1  0
  3  4  1  0
  4  5  2  0
  5  6  1  0
  6  7  2  0
  7  8  1  0
  8  9  2  0
  2 10  1  0
 10 11  2  0
 11 12  1  0
 12 13  2  0
 13 14  1  0
 14 15  1  0
 14 16  2  0
  9  4  1  0
 16 10  1  0
M  CHG  1   9   1
M  END
>  <Energy>  (1021) 
74.178942558515629

>  <Energy_Delta>  (1021) 
4.1702299941722458

>  <std_smi>  (1021) 
CC(Nc1cnccn1)c1cccc(Cl)c1

>  <enum_smi>  (1021) 
C[C@@H](Nc1cncc[nH+]1)c1cccc(Cl)c1

>  <enum_code>  (1021) 
M

>  <parent_uuid>  (1021) 
6620cc01-fc2b-4cc4-81f0-045e40704b17

>  <o3da_score>  (1021) 
70.735569270566629

>  <o3da_score_rel>  (1021) 
0.28160857885281959

>  <o3da_align>  (1021) 
0.25211569230620196

>  <RMSD>  (1021) 
6.6389193485305513e-05

>  <CONVERGED>  (1021) 
0

>  <ENERGY>  (1021) 
74.17894245470147

$$$$
a7cd2696-28f1-4c2f-8d48-1e7dd8448d62
     RDKit          3D

 16 17  0  0  0  0  0  0  0  0999 V2000
   -2.6865   26.2214    5.2088 C   0  0  0  0  0  0  0  0  0  0  0  0
   -3.9211   26.7279    4.4581 C   0  0  1  0  0  0  0  0  0  0  0  0
   -3.5298   27.2913    3.1658 N   0  0  0  0  0  0  0  0  0  0  0  0
   -2.8748   28.4926    2.9812 C   0  0  0  0  0  0  0  0  0  0  0  0
   -2.4137   28.8950    1.7172 C   0  0  0  0  0  0  0  0  0  0  0  0
   -1.8111   30.0831    1.4771 N   0  0  0  0  0  0  0  0  0  0  0  0
   -1.6877   30.9233    2.5200 C   0  0  0  0  0  0  0  0  0  0  0  0
   -2.1552   30.5999    3.7798 C   0  0  0  0  0  0  0  0  0  0  0  0
   -2.7399   29.4014    3.9672 N   0  0  0  0  0  4  0  0  0  0  0  0
   -4.9822   25.6753    4.1873 C   0  0  0  0  0  0  0  0  0  0  0  0
   -4.7099   24.2981    4.1442 C   0  0  0  0  0  0  0  0  0  0  0  0
   -5.7242   23.3749    3.8681 C   0  0  0  0  0  0  0  0  0  0  0  0
   -7.0244   23.8111    3.6212 C   0  0  0  0  0  0  0  0  0  0  0  0
   -7.3069   25.1718    3.6474 C   0  0  0  0  0  0  0  0  0  0  0  0
   -8.9045   25.7244    3.3334 Cl  0  0  0  0  0  0  0  0  0  0  0  0
   -6.2996   26.0979    3.9239 C   0  0  0  0  0  0  0  0  0  0  0  0
  2  1  1  6
  2  3  1  0
  3  4  1  0
  4  5  2  0
  5  6  1  0
  6  7  2  0
  7  8  1  0
  8  9  2  0
  2 10  1  0
 10 11  2  0
 11 12  1  0
 12 13  2  0
 13 14  1  0
 14 15  1  0
 14 16  2  0
  9  4  1  0
 16 10  1  0
M  CHG  1   9   1
M  END
>  <Energy>  (1022) 
75.017389310084326

>  <Energy_Delta>  (1022) 
5.0086767457409422

>  <std_smi>  (1022) 
CC(Nc1cnccn1)c1cccc(Cl)c1

>  <enum_smi>  (1022) 
C[C@@H](Nc1cncc[nH+]1)c1cccc(Cl)c1

>  <enum_code>  (1022) 
M

>  <parent_uuid>  (1022) 
6620cc01-fc2b-4cc4-81f0-045e40704b17

>  <o3da_score>  (1022) 
74.888538522101882

>  <o3da_score_rel>  (1022) 
0.29814215285249812

>  <o3da_align>  (1022) 
0.47532141137005535

>  <RMSD>  (1022) 
0.34700347818434651

>  <CONVERGED>  (1022) 
0

>  <ENERGY>  (1022) 
75.22327659026007

$$$$
a7cd2696-28f1-4c2f-8d48-1e7dd8448d62
     RDKit          3D

 16 17  0  0  0  0  0  0  0  0999 V2000
   -3.6666   29.0428    5.6084 C   0  0  0  0  0  0  0  0  0  0  0  0
   -4.5973   28.1294    4.8055 C   0  0  1  0  0  0  0  0  0  0  0  0
   -4.8787   28.7218    3.4858 N   0  0  0  0  0  0  0  0  0  0  0  0
   -4.0017   28.8524    2.4441 C   0  0  0  0  0  0  0  0  0  0  0  0
   -2.6798   28.3901    2.3738 C   0  0  0  0  0  0  0  0  0  0  0  0
   -1.8721   28.5638    1.2975 N   0  0  0  0  0  0  0  0  0  0  0  0
   -2.3915   29.2098    0.2402 C   0  0  0  0  0  0  0  0  0  0  0  0
   -3.6884   29.6815    0.2430 C   0  0  0  0  0  0  0  0  0  0  0  0
   -4.4444   29.4881    1.3384 N   0  0  0  0  0  4  0  0  0  0  0  0
   -4.2235   26.6610    4.6937 C   0  0  0  0  0  0  0  0  0  0  0  0
   -5.0923   25.7776    4.0231 C   0  0  0  0  0  0  0  0  0  0  0  0
   -4.7923   24.4181    3.9041 C   0  0  0  0  0  0  0  0  0  0  0  0
   -3.6205   23.9121    4.4603 C   0  0  0  0  0  0  0  0  0  0  0  0
   -2.7593   24.7668    5.1401 C   0  0  0  0  0  0  0  0  0  0  0  0
   -1.3122   24.1480    5.8336 Cl  0  0  0  0  0  0  0  0  0  0  0  0
   -3.0558   26.1272    5.2642 C   0  0  0  0  0  0  0  0  0  0  0  0
  2  1  1  6
  2  3  1  0
  3  4  1  0
  4  5  2  0
  5  6  1  0
  6  7  2  0
  7  8  1  0
  8  9  2  0
  2 10  1  0
 10 11  2  0
 11 12  1  0
 12 13  2  0
 13 14  1  0
 14 15  1  0
 14 16  2  0
  9  4  1  0
 16 10  1  0
M  CHG  1   9   1
M  END
>  <Energy>  (1023) 
75.045968497658905

>  <Energy_Delta>  (1023) 
5.0372559333155209

>  <std_smi>  (1023) 
CC(Nc1cnccn1)c1cccc(Cl)c1

>  <enum_smi>  (1023) 
C[C@@H](Nc1cncc[nH+]1)c1cccc(Cl)c1

>  <enum_code>  (1023) 
M

>  <parent_uuid>  (1023) 
6620cc01-fc2b-4cc4-81f0-045e40704b17

>  <o3da_score>  (1023) 
71.028964478609595

>  <o3da_score_rel>  (1023) 
0.28277662780515317

>  <o3da_align>  (1023) 
0.33492189691104707

>  <RMSD>  (1023) 
6.5147195072569078e-05

>  <CONVERGED>  (1023) 
0

>  <ENERGY>  (1023) 
75.045968457180152

$$$$
a7cd2696-28f1-4c2f-8d48-1e7dd8448d62
     RDKit          3D

 16 17  0  0  0  0  0  0  0  0999 V2000
   -3.9935   29.0710    6.4969 C   0  0  0  0  0  0  0  0  0  0  0  0
   -3.4355   28.8804    5.0836 C   0  0  1  0  0  0  0  0  0  0  0  0
   -4.1763   27.8380    4.3740 N   0  0  0  0  0  0  0  0  0  0  0  0
   -4.1091   26.4850    4.6407 C   0  0  0  0  0  0  0  0  0  0  0  0
   -4.9497   25.5633    3.9955 C   0  0  0  0  0  0  0  0  0  0  0  0
   -4.8891   24.2246    4.1869 N   0  0  0  0  0  0  0  0  0  0  0  0
   -3.9397   23.7732    5.0257 C   0  0  0  0  0  0  0  0  0  0  0  0
   -3.0590   24.6275    5.6619 C   0  0  0  0  0  0  0  0  0  0  0  0
   -3.1660   25.9516    5.4422 N   0  0  0  0  0  4  0  0  0  0  0  0
   -3.4826   30.1344    4.2285 C   0  0  0  0  0  0  0  0  0  0  0  0
   -2.4607   30.3669    3.2897 C   0  0  0  0  0  0  0  0  0  0  0  0
   -2.4821   31.4965    2.4670 C   0  0  0  0  0  0  0  0  0  0  0  0
   -3.5308   32.4084    2.5597 C   0  0  0  0  0  0  0  0  0  0  0  0
   -4.5564   32.1838    3.4719 C   0  0  0  0  0  0  0  0  0  0  0  0
   -5.8631   33.2969    3.5822 Cl  0  0  0  0  0  0  0  0  0  0  0  0
   -4.5406   31.0570    4.2982 C   0  0  0  0  0  0  0  0  0  0  0  0
  2  1  1  1
  2  3  1  0
  3  4  1  0
  4  5  2  0
  5  6  1  0
  6  7  2  0
  7  8  1  0
  8  9  2  0
  2 10  1  0
 10 11  2  0
 11 12  1  0
 12 13  2  0
 13 14  1  0
 14 15  1  0
 14 16  2  0
  9  4  1  0
 16 10  1  0
M  CHG  1   9   1
M  END
>  <Energy>  (1024) 
75.14545052962643

>  <Energy_Delta>  (1024) 
5.1367379652830465

>  <std_smi>  (1024) 
CC(Nc1cnccn1)c1cccc(Cl)c1

>  <enum_smi>  (1024) 
C[C@@H](Nc1cncc[nH+]1)c1cccc(Cl)c1

>  <enum_code>  (1024) 
M

>  <parent_uuid>  (1024) 
6620cc01-fc2b-4cc4-81f0-045e40704b17

>  <o3da_score>  (1024) 
75.72982566223412

>  <o3da_score_rel>  (1024) 
0.30149143919291882

>  <o3da_align>  (1024) 
0.53354837729393922

>  <RMSD>  (1024) 
0.24155182464562977

>  <CONVERGED>  (1024) 
0

>  <ENERGY>  (1024) 
75.514380915898968

$$$$
f2d776c8-8e71-4b7b-8514-cf6523996dee
     RDKit          3D

 16 17  0  0  0  0  0  0  0  0999 V2000
   -6.1729   28.1480    4.8856 C   0  0  0  0  0  0  0  0  0  0  0  0
   -4.7256   27.8587    4.4851 C   0  0  1  0  0  0  0  0  0  0  0  0
   -4.0381   29.1791    4.2587 N   0  0  0  0  0  4  0  0  0  0  0  0
   -2.7338   29.0565    3.6479 C   0  0  0  0  0  0  0  0  0  0  0  0
   -1.5379   28.9155    4.3630 C   0  0  0  0  0  0  0  0  0  0  0  0
   -0.3810   28.8134    3.6677 N   0  0  0  0  0  4  0  0  0  0  0  0
   -0.3614   28.8597    2.3192 C   0  0  0  0  0  0  0  0  0  0  0  0
   -1.5728   29.0169    1.6583 C   0  0  0  0  0  0  0  0  0  0  0  0
   -2.7602   29.1186    2.3118 N   0  0  0  0  0  0  0  0  0  0  0  0
   -3.9800   27.0128    5.4982 C   0  0  0  0  0  0  0  0  0  0  0  0
   -3.9613   27.3272    6.8679 C   0  0  0  0  0  0  0  0  0  0  0  0
   -3.2086   26.5610    7.7628 C   0  0  0  0  0  0  0  0  0  0  0  0
   -2.4559   25.4806    7.3048 C   0  0  0  0  0  0  0  0  0  0  0  0
   -2.4696   25.1575    5.9532 C   0  0  0  0  0  0  0  0  0  0  0  0
   -1.5120   23.8598    5.3656 Cl  0  0  0  0  0  0  0  0  0  0  0  0
   -3.2296   25.9084    5.0539 C   0  0  0  0  0  0  0  0  0  0  0  0
  2  1  1  1
  2  3  1  0
  3  4  1  0
  4  5  2  0
  5  6  1  0
  6  7  2  0
  7  8  1  0
  8  9  2  0
  2 10  1  0
 10 11  2  0
 11 12  1  0
 12 13  2  0
 13 14  1  0
 14 15  1  0
 14 16  2  0
  9  4  1  0
 16 10  1  0
M  CHG  2   3   1   6   1
M  END
>  <Energy>  (1025) 
86.604873937950089

>  <Energy_Delta>  (1025) 
0

>  <std_smi>  (1025) 
CC(Nc1cnccn1)c1cccc(Cl)c1

>  <enum_smi>  (1025) 
C[C@@H]([NH2+]c1c[nH+]ccn1)c1cccc(Cl)c1

>  <enum_code>  (1025) 
M

>  <parent_uuid>  (1025) 
6620cc01-fc2b-4cc4-81f0-045e40704b17

>  <o3da_score>  (1025) 
58.445469056935053

>  <o3da_score_rel>  (1025) 
0.23267990420144219

>  <o3da_align>  (1025) 
0.63781767562839886

>  <RMSD>  (1025) 
7.8965874668700519e-05

>  <CONVERGED>  (1025) 
0

>  <ENERGY>  (1025) 
86.604873754439794

$$$$
f2d776c8-8e71-4b7b-8514-cf6523996dee
     RDKit          3D

 16 17  0  0  0  0  0  0  0  0999 V2000
   -4.8282   28.3144    6.8317 C   0  0  0  0  0  0  0  0  0  0  0  0
   -4.5892   28.1288    5.3330 C   0  0  1  0  0  0  0  0  0  0  0  0
   -3.5243   29.1055    4.9119 N   0  0  0  0  0  4  0  0  0  0  0  0
   -3.3404   29.1841    3.4808 C   0  0  0  0  0  0  0  0  0  0  0  0
   -2.4436   28.3902    2.7554 C   0  0  0  0  0  0  0  0  0  0  0  0
   -2.3478   28.5847    1.4194 N   0  0  0  0  0  4  0  0  0  0  0  0
   -3.0824   29.5243    0.7882 C   0  0  0  0  0  0  0  0  0  0  0  0
   -3.9475   30.2940    1.5551 C   0  0  0  0  0  0  0  0  0  0  0  0
   -4.0805   30.1344    2.8982 N   0  0  0  0  0  0  0  0  0  0  0  0
   -4.2236   26.7023    4.9763 C   0  0  0  0  0  0  0  0  0  0  0  0
   -5.0029   25.9944    4.0446 C   0  0  0  0  0  0  0  0  0  0  0  0
   -4.6593   24.6928    3.6704 C   0  0  0  0  0  0  0  0  0  0  0  0
   -3.5316   24.0809    4.2148 C   0  0  0  0  0  0  0  0  0  0  0  0
   -2.7583   24.7671    5.1443 C   0  0  0  0  0  0  0  0  0  0  0  0
   -1.3508   24.0365    5.8015 Cl  0  0  0  0  0  0  0  0  0  0  0  0
   -3.0990   26.0658    5.5314 C   0  0  0  0  0  0  0  0  0  0  0  0
  2  1  1  1
  2  3  1  0
  3  4  1  0
  4  5  2  0
  5  6  1  0
  6  7  2  0
  7  8  1  0
  8  9  2  0
  2 10  1  0
 10 11  2  0
 11 12  1  0
 12 13  2  0
 13 14  1  0
 14 15  1  0
 14 16  2  0
  9  4  1  0
 16 10  1  0
M  CHG  2   3   1   6   1
M  END
>  <Energy>  (1026) 
87.10798142526329

>  <Energy_Delta>  (1026) 
0.50310748731320132

>  <std_smi>  (1026) 
CC(Nc1cnccn1)c1cccc(Cl)c1

>  <enum_smi>  (1026) 
C[C@@H]([NH2+]c1c[nH+]ccn1)c1cccc(Cl)c1

>  <enum_code>  (1026) 
M

>  <parent_uuid>  (1026) 
6620cc01-fc2b-4cc4-81f0-045e40704b17

>  <o3da_score>  (1026) 
74.352087421887134

>  <o3da_score_rel>  (1026) 
0.29600646307840922

>  <o3da_align>  (1026) 
0.42514395329322574

>  <RMSD>  (1026) 
5.9377236475123667e-05

>  <CONVERGED>  (1026) 
0

>  <ENERGY>  (1026) 
87.107981374550917

$$$$
f2d776c8-8e71-4b7b-8514-cf6523996dee
     RDKit          3D

 16 17  0  0  0  0  0  0  0  0999 V2000
   -4.3980   28.4124    6.9250 C   0  0  0  0  0  0  0  0  0  0  0  0
   -4.5266   28.0965    5.4349 C   0  0  1  0  0  0  0  0  0  0  0  0
   -3.7170   29.1096    4.6774 N   0  0  0  0  0  4  0  0  0  0  0  0
   -3.5441   28.8614    3.2649 C   0  0  0  0  0  0  0  0  0  0  0  0
   -4.5759   28.8011    2.3226 C   0  0  0  0  0  0  0  0  0  0  0  0
   -4.2532   28.5446    1.0326 N   0  0  0  0  0  4  0  0  0  0  0  0
   -2.9729   28.3601    0.6477 C   0  0  0  0  0  0  0  0  0  0  0  0
   -1.9847   28.4497    1.6184 C   0  0  0  0  0  0  0  0  0  0  0  0
   -2.2593   28.7067    2.9235 N   0  0  0  0  0  0  0  0  0  0  0  0
   -4.1547   26.6651    5.1078 C   0  0  0  0  0  0  0  0  0  0  0  0
   -2.8809   26.1438    5.3932 C   0  0  0  0  0  0  0  0  0  0  0  0
   -2.5516   24.8332    5.0355 C   0  0  0  0  0  0  0  0  0  0  0  0
   -3.4827   24.0266    4.3835 C   0  0  0  0  0  0  0  0  0  0  0  0
   -4.7477   24.5285    4.1032 C   0  0  0  0  0  0  0  0  0  0  0  0
   -5.8971   23.5605    3.2719 Cl  0  0  0  0  0  0  0  0  0  0  0  0
   -5.0901   25.8330    4.4673 C   0  0  0  0  0  0  0  0  0  0  0  0
  2  1  1  1
  2  3  1  0
  3  4  1  0
  4  5  2  0
  5  6  1  0
  6  7  2  0
  7  8  1  0
  8  9  2  0
  2 10  1  0
 10 11  2  0
 11 12  1  0
 12 13  2  0
 13 14  1  0
 14 15  1  0
 14 16  2  0
  9  4  1  0
 16 10  1  0
M  CHG  2   3   1   6   1
M  END
>  <Energy>  (1027) 
90.015984059800047

>  <Energy_Delta>  (1027) 
3.4111101218499584

>  <std_smi>  (1027) 
CC(Nc1cnccn1)c1cccc(Cl)c1

>  <enum_smi>  (1027) 
C[C@@H]([NH2+]c1c[nH+]ccn1)c1cccc(Cl)c1

>  <enum_code>  (1027) 
M

>  <parent_uuid>  (1027) 
6620cc01-fc2b-4cc4-81f0-045e40704b17

>  <o3da_score>  (1027) 
75.363893324809766

>  <o3da_score_rel>  (1027) 
0.30003460938917192

>  <o3da_align>  (1027) 
0.451008595298721

>  <RMSD>  (1027) 
0.00010224238225169929

>  <CONVERGED>  (1027) 
0

>  <ENERGY>  (1027) 
90.015983988873103

$$$$
f2d776c8-8e71-4b7b-8514-cf6523996dee
     RDKit          3D

 16 17  0  0  0  0  0  0  0  0999 V2000
   -4.4167   30.3734    4.7171 C   0  0  0  0  0  0  0  0  0  0  0  0
   -3.6774   29.0476    4.8928 C   0  0  1  0  0  0  0  0  0  0  0  0
   -4.7061   27.9603    5.0164 N   0  0  0  0  0  4  0  0  0  0  0  0
   -4.2289   26.6026    4.8981 C   0  0  0  0  0  0  0  0  0  0  0  0
   -3.2795   25.9999    5.7287 C   0  0  0  0  0  0  0  0  0  0  0  0
   -2.9262   24.7176    5.4738 N   0  0  0  0  0  4  0  0  0  0  0  0
   -3.4720   24.0229    4.4532 C   0  0  0  0  0  0  0  0  0  0  0  0
   -4.4219   24.6619    3.6687 C   0  0  0  0  0  0  0  0  0  0  0  0
   -4.8106   25.9445    3.8880 N   0  0  0  0  0  0  0  0  0  0  0  0
   -2.6581   28.8232    3.7947 C   0  0  0  0  0  0  0  0  0  0  0  0
   -1.2854   28.8932    4.0907 C   0  0  0  0  0  0  0  0  0  0  0  0
   -0.3292   28.6661    3.0972 C   0  0  0  0  0  0  0  0  0  0  0  0
   -0.7271   28.3649    1.7959 C   0  0  0  0  0  0  0  0  0  0  0  0
   -2.0813   28.3084    1.4869 C   0  0  0  0  0  0  0  0  0  0  0  0
   -2.5854   27.9195   -0.1078 Cl  0  0  0  0  0  0  0  0  0  0  0  0
   -3.0441   28.5459    2.4709 C   0  0  0  0  0  0  0  0  0  0  0  0
  2  1  1  6
  2  3  1  0
  3  4  1  0
  4  5  2  0
  5  6  1  0
  6  7  2  0
  7  8  1  0
  8  9  2  0
  2 10  1  0
 10 11  2  0
 11 12  1  0
 12 13  2  0
 13 14  1  0
 14 15  1  0
 14 16  2  0
  9  4  1  0
 16 10  1  0
M  CHG  2   3   1   6   1
M  END
>  <Energy>  (1028) 
90.285277065534004

>  <Energy_Delta>  (1028) 
3.6804031275839151

>  <std_smi>  (1028) 
CC(Nc1cnccn1)c1cccc(Cl)c1

>  <enum_smi>  (1028) 
C[C@@H]([NH2+]c1c[nH+]ccn1)c1cccc(Cl)c1

>  <enum_code>  (1028) 
M

>  <parent_uuid>  (1028) 
6620cc01-fc2b-4cc4-81f0-045e40704b17

>  <o3da_score>  (1028) 
75.845982621766524

>  <o3da_score_rel>  (1028) 
0.30195387692594483

>  <o3da_align>  (1028) 
0.55957854723432032

>  <RMSD>  (1028) 
8.034316995859471e-05

>  <CONVERGED>  (1028) 
0

>  <ENERGY>  (1028) 
90.285276934453492

$$$$
f2d776c8-8e71-4b7b-8514-cf6523996dee
     RDKit          3D

 16 17  0  0  0  0  0  0  0  0999 V2000
   -3.8593   28.7187    6.1101 C   0  0  0  0  0  0  0  0  0  0  0  0
   -4.1229   28.0512    4.7586 C   0  0  1  0  0  0  0  0  0  0  0  0
   -3.1909   28.5906    3.7147 N   0  0  0  0  0  4  0  0  0  0  0  0
   -3.4405   29.9470    3.3008 C   0  0  0  0  0  0  0  0  0  0  0  0
   -4.4081   30.3189    2.3609 C   0  0  0  0  0  0  0  0  0  0  0  0
   -4.5065   31.6267    2.0225 N   0  0  0  0  0  4  0  0  0  0  0  0
   -3.6944   32.5596    2.5632 C   0  0  0  0  0  0  0  0  0  0  0  0
   -2.7441   32.1368    3.4828 C   0  0  0  0  0  0  0  0  0  0  0  0
   -2.6070   30.8363    3.8516 N   0  0  0  0  0  0  0  0  0  0  0  0
   -3.9922   26.5426    4.8005 C   0  0  0  0  0  0  0  0  0  0  0  0
   -2.8790   25.9050    5.3755 C   0  0  0  0  0  0  0  0  0  0  0  0
   -2.7682   24.5113    5.3582 C   0  0  0  0  0  0  0  0  0  0  0  0
   -3.7588   23.7335    4.7614 C   0  0  0  0  0  0  0  0  0  0  0  0
   -4.8622   24.3517    4.1862 C   0  0  0  0  0  0  0  0  0  0  0  0
   -6.0861   23.4094    3.4347 Cl  0  0  0  0  0  0  0  0  0  0  0  0
   -4.9830   25.7438    4.2015 C   0  0  0  0  0  0  0  0  0  0  0  0
  2  1  1  1
  2  3  1  0
  3  4  1  0
  4  5  2  0
  5  6  1  0
  6  7  2  0
  7  8  1  0
  8  9  2  0
  2 10  1  0
 10 11  2  0
 11 12  1  0
 12 13  2  0
 13 14  1  0
 14 15  1  0
 14 16  2  0
  9  4  1  0
 16 10  1  0
M  CHG  2   3   1   6   1
M  END
>  <Energy>  (1029) 
91.886306781867702

>  <Energy_Delta>  (1029) 
5.2814328439176137

>  <std_smi>  (1029) 
CC(Nc1cnccn1)c1cccc(Cl)c1

>  <enum_smi>  (1029) 
C[C@@H]([NH2+]c1c[nH+]ccn1)c1cccc(Cl)c1

>  <enum_code>  (1029) 
M

>  <parent_uuid>  (1029) 
6620cc01-fc2b-4cc4-81f0-045e40704b17

>  <o3da_score>  (1029) 
64.970411242877191

>  <o3da_score_rel>  (1029) 
0.25865664709088632

>  <o3da_align>  (1029) 
0.33689906951740389

>  <RMSD>  (1029) 
9.4404725885469557e-05

>  <CONVERGED>  (1029) 
0

>  <ENERGY>  (1029) 
91.886306749152297

$$$$
f2d776c8-8e71-4b7b-8514-cf6523996dee
     RDKit          3D

 16 17  0  0  0  0  0  0  0  0999 V2000
   -4.3173   30.8190    3.3634 C   0  0  0  0  0  0  0  0  0  0  0  0
   -3.5712   29.6065    2.8024 C   0  0  1  0  0  0  0  0  0  0  0  0
   -2.0974   29.7442    3.0621 N   0  0  0  0  0  4  0  0  0  0  0  0
   -1.4291   30.7280    2.2490 C   0  0  0  0  0  0  0  0  0  0  0  0
   -1.0938   32.0128    2.6905 C   0  0  0  0  0  0  0  0  0  0  0  0
   -0.4188   32.8283    1.8459 N   0  0  0  0  0  4  0  0  0  0  0  0
   -0.0623   32.4249    0.6083 C   0  0  0  0  0  0  0  0  0  0  0  0
   -0.4088   31.1373    0.2220 C   0  0  0  0  0  0  0  0  0  0  0  0
   -1.0851   30.2838    1.0347 N   0  0  0  0  0  0  0  0  0  0  0  0
   -4.0510   28.2919    3.3844 C   0  0  0  0  0  0  0  0  0  0  0  0
   -4.2742   27.1956    2.5325 C   0  0  0  0  0  0  0  0  0  0  0  0
   -4.6765   25.9601    3.0476 C   0  0  0  0  0  0  0  0  0  0  0  0
   -4.8543   25.7956    4.4197 C   0  0  0  0  0  0  0  0  0  0  0  0
   -4.6317   26.8693    5.2734 C   0  0  0  0  0  0  0  0  0  0  0  0
   -4.8326   26.6793    6.9690 Cl  0  0  0  0  0  0  0  0  0  0  0  0
   -4.2312   28.1094    4.7670 C   0  0  0  0  0  0  0  0  0  0  0  0
  2  1  1  1
  2  3  1  0
  3  4  1  0
  4  5  2  0
  5  6  1  0
  6  7  2  0
  7  8  1  0
  8  9  2  0
  2 10  1  0
 10 11  2  0
 11 12  1  0
 12 13  2  0
 13 14  1  0
 14 15  1  0
 14 16  2  0
  9  4  1  0
 16 10  1  0
M  CHG  2   3   1   6   1
M  END
>  <Energy>  (1030) 
91.896513411106241

>  <Energy_Delta>  (1030) 
5.2916394731561525

>  <std_smi>  (1030) 
CC(Nc1cnccn1)c1cccc(Cl)c1

>  <enum_smi>  (1030) 
C[C@@H]([NH2+]c1c[nH+]ccn1)c1cccc(Cl)c1

>  <enum_code>  (1030) 
M

>  <parent_uuid>  (1030) 
6620cc01-fc2b-4cc4-81f0-045e40704b17

>  <o3da_score>  (1030) 
66.719920122800659

>  <o3da_score_rel>  (1030) 
0.26562169613829167

>  <o3da_align>  (1030) 
0.5506326120278886

>  <RMSD>  (1030) 
0.00019827110368191437

>  <CONVERGED>  (1030) 
0

>  <ENERGY>  (1030) 
91.896513713678615

$$$$
f2d776c8-8e71-4b7b-8514-cf6523996dee
     RDKit          3D

 16 17  0  0  0  0  0  0  0  0999 V2000
   -4.0815   28.5850    6.8481 C   0  0  0  0  0  0  0  0  0  0  0  0
   -4.5204   28.1586    5.4444 C   0  0  1  0  0  0  0  0  0  0  0  0
   -4.0731   29.2150    4.4657 N   0  0  0  0  0  4  0  0  0  0  0  0
   -2.8404   28.9790    3.7507 C   0  0  0  0  0  0  0  0  0  0  0  0
   -1.5586   29.0134    4.3076 C   0  0  0  0  0  0  0  0  0  0  0  0
   -0.5008   28.7552    3.5024 N   0  0  0  0  0  4  0  0  0  0  0  0
   -0.6607   28.4843    2.1902 C   0  0  0  0  0  0  0  0  0  0  0  0
   -1.9515   28.4884    1.6805 C   0  0  0  0  0  0  0  0  0  0  0  0
   -3.0424   28.7437    2.4481 N   0  0  0  0  0  0  0  0  0  0  0  0
   -4.1456   26.7479    5.0302 C   0  0  0  0  0  0  0  0  0  0  0  0
   -4.8720   26.1191    4.0011 C   0  0  0  0  0  0  0  0  0  0  0  0
   -4.5204   24.8441    3.5489 C   0  0  0  0  0  0  0  0  0  0  0  0
   -3.4327   24.1773    4.1074 C   0  0  0  0  0  0  0  0  0  0  0  0
   -2.7100   24.7827    5.1278 C   0  0  0  0  0  0  0  0  0  0  0  0
   -1.3393   23.9949    5.7996 Cl  0  0  0  0  0  0  0  0  0  0  0  0
   -3.0639   26.0516    5.5966 C   0  0  0  0  0  0  0  0  0  0  0  0
  2  1  1  1
  2  3  1  0
  3  4  1  0
  4  5  2  0
  5  6  1  0
  6  7  2  0
  7  8  1  0
  8  9  2  0
  2 10  1  0
 10 11  2  0
 11 12  1  0
 12 13  2  0
 13 14  1  0
 14 15  1  0
 14 16  2  0
  9  4  1  0
 16 10  1  0
M  CHG  2   3   1   6   1
M  END
>  <Energy>  (1031) 
92.023770460489459

>  <Energy_Delta>  (1031) 
5.4188965225393702

>  <std_smi>  (1031) 
CC(Nc1cnccn1)c1cccc(Cl)c1

>  <enum_smi>  (1031) 
C[C@@H]([NH2+]c1c[nH+]ccn1)c1cccc(Cl)c1

>  <enum_code>  (1031) 
M

>  <parent_uuid>  (1031) 
6620cc01-fc2b-4cc4-81f0-045e40704b17

>  <o3da_score>  (1031) 
70.117422109844696

>  <o3da_score_rel>  (1031) 
0.27914764519175067

>  <o3da_align>  (1031) 
0.60181607494611944

>  <RMSD>  (1031) 
0.0001060134585959892

>  <CONVERGED>  (1031) 
0

>  <ENERGY>  (1031) 
92.023770455090073

$$$$
f2d776c8-8e71-4b7b-8514-cf6523996dee
     RDKit          3D

 16 17  0  0  0  0  0  0  0  0999 V2000
   -4.1838   31.0931    3.7601 C   0  0  0  0  0  0  0  0  0  0  0  0
   -3.1951   29.9280    3.6800 C   0  0  1  0  0  0  0  0  0  0  0  0
   -1.7908   30.4447    3.8222 N   0  0  0  0  0  4  0  0  0  0  0  0
   -1.2686   31.1016    2.6514 C   0  0  0  0  0  0  0  0  0  0  0  0
   -1.2183   32.4897    2.4849 C   0  0  0  0  0  0  0  0  0  0  0  0
   -0.6552   32.9828    1.3561 N   0  0  0  0  0  4  0  0  0  0  0  0
   -0.1422   32.1697    0.4086 C   0  0  0  0  0  0  0  0  0  0  0  0
   -0.2068   30.8002    0.6264 C   0  0  0  0  0  0  0  0  0  0  0  0
   -0.7616   30.2603    1.7430 N   0  0  0  0  0  0  0  0  0  0  0  0
   -3.4278   28.8534    4.7235 C   0  0  0  0  0  0  0  0  0  0  0  0
   -3.7888   29.1474    6.0494 C   0  0  0  0  0  0  0  0  0  0  0  0
   -3.9470   28.1233    6.9887 C   0  0  0  0  0  0  0  0  0  0  0  0
   -3.7380   26.7943    6.6246 C   0  0  0  0  0  0  0  0  0  0  0  0
   -3.3730   26.4901    5.3190 C   0  0  0  0  0  0  0  0  0  0  0  0
   -3.0984   24.8585    4.8581 Cl  0  0  0  0  0  0  0  0  0  0  0  0
   -3.2152   27.5065    4.3736 C   0  0  0  0  0  0  0  0  0  0  0  0
  2  1  1  1
  2  3  1  0
  3  4  1  0
  4  5  2  0
  5  6  1  0
  6  7  2  0
  7  8  1  0
  8  9  2  0
  2 10  1  0
 10 11  2  0
 11 12  1  0
 12 13  2  0
 13 14  1  0
 14 15  1  0
 14 16  2  0
  9  4  1  0
 16 10  1  0
M  CHG  2   3   1   6   1
M  END
>  <Energy>  (1032) 
92.117558998781078

>  <Energy_Delta>  (1032) 
5.5126850608309894

>  <std_smi>  (1032) 
CC(Nc1cnccn1)c1cccc(Cl)c1

>  <enum_smi>  (1032) 
C[C@@H]([NH2+]c1c[nH+]ccn1)c1cccc(Cl)c1

>  <enum_code>  (1032) 
M

>  <parent_uuid>  (1032) 
6620cc01-fc2b-4cc4-81f0-045e40704b17

>  <o3da_score>  (1032) 
72.628804245010926

>  <o3da_score_rel>  (1032) 
0.28914582236532155

>  <o3da_align>  (1032) 
0.43832291376685217

>  <RMSD>  (1032) 
7.2710240094283214e-05

>  <CONVERGED>  (1032) 
0

>  <ENERGY>  (1032) 
92.117558979012941

$$$$
f2d776c8-8e71-4b7b-8514-cf6523996dee
     RDKit          3D

 16 17  0  0  0  0  0  0  0  0999 V2000
   -2.2674   28.3505    2.9317 C   0  0  0  0  0  0  0  0  0  0  0  0
   -3.7234   28.5976    3.3318 C   0  0  1  0  0  0  0  0  0  0  0  0
   -4.0273   27.9504    4.6504 N   0  0  0  0  0  4  0  0  0  0  0  0
   -4.0464   26.5106    4.6492 C   0  0  0  0  0  0  0  0  0  0  0  0
   -5.1331   25.7352    4.2309 C   0  0  0  0  0  0  0  0  0  0  0  0
   -5.0377   24.3878    4.3311 N   0  0  0  0  0  4  0  0  0  0  0  0
   -3.9322   23.7923    4.8267 C   0  0  0  0  0  0  0  0  0  0  0  0
   -2.8863   24.6074    5.2377 C   0  0  0  0  0  0  0  0  0  0  0  0
   -2.9375   25.9627    5.1580 N   0  0  0  0  0  0  0  0  0  0  0  0
   -4.0597   30.0726    3.4108 C   0  0  0  0  0  0  0  0  0  0  0  0
   -5.1361   30.5905    2.6701 C   0  0  0  0  0  0  0  0  0  0  0  0
   -5.4773   31.9433    2.7580 C   0  0  0  0  0  0  0  0  0  0  0  0
   -4.7544   32.7980    3.5881 C   0  0  0  0  0  0  0  0  0  0  0  0
   -3.6866   32.2990    4.3245 C   0  0  0  0  0  0  0  0  0  0  0  0
   -2.7916   33.3387    5.3581 Cl  0  0  0  0  0  0  0  0  0  0  0  0
   -3.3365   30.9486    4.2410 C   0  0  0  0  0  0  0  0  0  0  0  0
  2  1  1  1
  2  3  1  0
  3  4  1  0
  4  5  2  0
  5  6  1  0
  6  7  2  0
  7  8  1  0
  8  9  2  0
  2 10  1  0
 10 11  2  0
 11 12  1  0
 12 13  2  0
 13 14  1  0
 14 15  1  0
 14 16  2  0
  9  4  1  0
 16 10  1  0
M  CHG  2   3   1   6   1
M  END
>  <Energy>  (1033) 
92.17649685837155

>  <Energy_Delta>  (1033) 
5.5716229204214613

>  <std_smi>  (1033) 
CC(Nc1cnccn1)c1cccc(Cl)c1

>  <enum_smi>  (1033) 
C[C@@H]([NH2+]c1c[nH+]ccn1)c1cccc(Cl)c1

>  <enum_code>  (1033) 
M

>  <parent_uuid>  (1033) 
6620cc01-fc2b-4cc4-81f0-045e40704b17

>  <o3da_score>  (1033) 
65.037385320635664

>  <o3da_score_rel>  (1033) 
0.2589232806255003

>  <o3da_align>  (1033) 
0.57343356262866729

>  <RMSD>  (1033) 
6.2159157545826197e-05

>  <CONVERGED>  (1033) 
0

>  <ENERGY>  (1033) 
92.176496832026288

$$$$
f2d776c8-8e71-4b7b-8514-cf6523996dee
     RDKit          3D

 16 17  0  0  0  0  0  0  0  0999 V2000
   -2.1368   31.6494    5.8763 C   0  0  0  0  0  0  0  0  0  0  0  0
   -1.6675   30.5146    4.9603 C   0  0  1  0  0  0  0  0  0  0  0  0
   -2.3221   30.7143    3.6147 N   0  0  0  0  0  4  0  0  0  0  0  0
   -1.5209   31.2815    2.5560 C   0  0  0  0  0  0  0  0  0  0  0  0
   -1.0098   32.5818    2.5266 C   0  0  0  0  0  0  0  0  0  0  0  0
   -0.2601   32.9526    1.4614 N   0  0  0  0  0  4  0  0  0  0  0  0
   -0.0113   32.1044    0.4416 C   0  0  0  0  0  0  0  0  0  0  0  0
   -0.5590   30.8312    0.5091 C   0  0  0  0  0  0  0  0  0  0  0  0
   -1.3202   30.4158    1.5542 N   0  0  0  0  0  0  0  0  0  0  0  0
   -0.1669   30.2852    4.8936 C   0  0  0  0  0  0  0  0  0  0  0  0
    0.7720   31.1808    5.4345 C   0  0  0  0  0  0  0  0  0  0  0  0
    2.1448   30.9402    5.3132 C   0  0  0  0  0  0  0  0  0  0  0  0
    2.6054   29.8065    4.6472 C   0  0  0  0  0  0  0  0  0  0  0  0
    1.6913   28.9046    4.1179 C   0  0  0  0  0  0  0  0  0  0  0  0
    2.2418   27.5161    3.2715 Cl  0  0  0  0  0  0  0  0  0  0  0  0
    0.3189   29.1308    4.2467 C   0  0  0  0  0  0  0  0  0  0  0  0
  2  1  1  1
  2  3  1  0
  3  4  1  0
  4  5  2  0
  5  6  1  0
  6  7  2  0
  7  8  1  0
  8  9  2  0
  2 10  1  0
 10 11  2  0
 11 12  1  0
 12 13  2  0
 13 14  1  0
 14 15  1  0
 14 16  2  0
  9  4  1  0
 16 10  1  0
M  CHG  2   3   1   6   1
M  END
>  <Energy>  (1034) 
92.529638009424147

>  <Energy_Delta>  (1034) 
5.9247640714740584

>  <std_smi>  (1034) 
CC(Nc1cnccn1)c1cccc(Cl)c1

>  <enum_smi>  (1034) 
C[C@@H]([NH2+]c1c[nH+]ccn1)c1cccc(Cl)c1

>  <enum_code>  (1034) 
M

>  <parent_uuid>  (1034) 
6620cc01-fc2b-4cc4-81f0-045e40704b17

>  <o3da_score>  (1034) 
53.159548131798758

>  <o3da_score_rel>  (1034) 
0.21163588497594893

>  <o3da_align>  (1034) 
0.11498008471737103

>  <RMSD>  (1034) 
0.00010671568726410246

>  <CONVERGED>  (1034) 
0

>  <ENERGY>  (1034) 
92.529637517113414

$$$$
905eefff-e240-4f4b-a6d9-cc52b77c7068
     RDKit          3D

 16 17  0  0  0  0  0  0  0  0999 V2000
   -4.2919   28.7897    6.9408 C   0  0  0  0  0  0  0  0  0  0  0  0
   -4.0802   29.0051    5.4426 C   0  0  1  0  0  0  0  0  0  0  0  0
   -2.5905   29.1150    5.1947 N   0  0  0  0  0  4  0  0  0  0  0  0
   -2.2566   29.5093    3.8196 C   0  0  0  0  0  0  0  0  0  0  0  0
   -1.9094   30.8349    3.5385 C   0  0  0  0  0  0  0  0  0  0  0  0
   -1.5983   31.2607    2.2972 N   0  0  0  0  0  0  0  0  0  0  0  0
   -1.6253   30.3594    1.2940 C   0  0  0  0  0  0  0  0  0  0  0  0
   -1.9602   29.0364    1.5160 C   0  0  0  0  0  0  0  0  0  0  0  0
   -2.2642   28.6456    2.7752 N   0  0  0  0  0  4  0  0  0  0  0  0
   -4.6874   27.9139    4.5851 C   0  0  0  0  0  0  0  0  0  0  0  0
   -4.4219   26.5521    4.8121 C   0  0  0  0  0  0  0  0  0  0  0  0
   -4.9334   25.5762    3.9522 C   0  0  0  0  0  0  0  0  0  0  0  0
   -5.7091   25.9423    2.8531 C   0  0  0  0  0  0  0  0  0  0  0  0
   -5.9883   27.2842    2.6247 C   0  0  0  0  0  0  0  0  0  0  0  0
   -6.9075   27.7534    1.2546 Cl  0  0  0  0  0  0  0  0  0  0  0  0
   -5.4889   28.2664    3.4833 C   0  0  0  0  0  0  0  0  0  0  0  0
  2  1  1  1
  2  3  1  0
  3  4  1  0
  4  5  2  0
  5  6  1  0
  6  7  2  0
  7  8  1  0
  8  9  2  0
  2 10  1  0
 10 11  2  0
 11 12  1  0
 12 13  2  0
 13 14  1  0
 14 15  1  0
 14 16  2  0
  9  4  1  0
 16 10  1  0
M  CHG  2   3   1   9   1
M  END
>  <Energy>  (1035) 
110.80215079828565

>  <Energy_Delta>  (1035) 
0

>  <std_smi>  (1035) 
CC(Nc1cnccn1)c1cccc(Cl)c1

>  <enum_smi>  (1035) 
C[C@@H]([NH2+]c1cncc[nH+]1)c1cccc(Cl)c1

>  <enum_code>  (1035) 
M

>  <parent_uuid>  (1035) 
6620cc01-fc2b-4cc4-81f0-045e40704b17

>  <o3da_score>  (1035) 
69.676122388848626

>  <o3da_score_rel>  (1035) 
0.27739076688343456

>  <o3da_align>  (1035) 
0.45163101887296575

>  <RMSD>  (1035) 
0.00010504712855005099

>  <CONVERGED>  (1035) 
0

>  <ENERGY>  (1035) 
110.80215083129495

$$$$
905eefff-e240-4f4b-a6d9-cc52b77c7068
     RDKit          3D

 16 17  0  0  0  0  0  0  0  0999 V2000
   -4.8504   28.2973    6.8723 C   0  0  0  0  0  0  0  0  0  0  0  0
   -4.5939   28.1273    5.3754 C   0  0  1  0  0  0  0  0  0  0  0  0
   -3.5145   29.1099    4.9738 N   0  0  0  0  0  4  0  0  0  0  0  0
   -3.2908   29.1670    3.5235 C   0  0  0  0  0  0  0  0  0  0  0  0
   -3.8557   30.2021    2.7708 C   0  0  0  0  0  0  0  0  0  0  0  0
   -3.6858   30.3125    1.4373 N   0  0  0  0  0  0  0  0  0  0  0  0
   -2.9327   29.3813    0.8168 C   0  0  0  0  0  0  0  0  0  0  0  0
   -2.3508   28.3375    1.5122 C   0  0  0  0  0  0  0  0  0  0  0  0
   -2.5452   28.2586    2.8488 N   0  0  0  0  0  4  0  0  0  0  0  0
   -4.2097   26.7123    4.9966 C   0  0  0  0  0  0  0  0  0  0  0  0
   -4.9262   26.0401    3.9910 C   0  0  0  0  0  0  0  0  0  0  0  0
   -4.5477   24.7587    3.5825 C   0  0  0  0  0  0  0  0  0  0  0  0
   -3.4497   24.1303    4.1673 C   0  0  0  0  0  0  0  0  0  0  0  0
   -2.7417   24.7783    5.1722 C   0  0  0  0  0  0  0  0  0  0  0  0
   -1.3698   24.0309    5.8812 Cl  0  0  0  0  0  0  0  0  0  0  0  0
   -3.1149   26.0587    5.5909 C   0  0  0  0  0  0  0  0  0  0  0  0
  2  1  1  1
  2  3  1  0
  3  4  1  0
  4  5  2  0
  5  6  1  0
  6  7  2  0
  7  8  1  0
  8  9  2  0
  2 10  1  0
 10 11  2  0
 11 12  1  0
 12 13  2  0
 13 14  1  0
 14 15  1  0
 14 16  2  0
  9  4  1  0
 16 10  1  0
M  CHG  2   3   1   9   1
M  END
>  <Energy>  (1036) 
111.06004411814602

>  <Energy_Delta>  (1036) 
0.25789331986037212

>  <std_smi>  (1036) 
CC(Nc1cnccn1)c1cccc(Cl)c1

>  <enum_smi>  (1036) 
C[C@@H]([NH2+]c1cncc[nH+]1)c1cccc(Cl)c1

>  <enum_code>  (1036) 
M

>  <parent_uuid>  (1036) 
6620cc01-fc2b-4cc4-81f0-045e40704b17

>  <o3da_score>  (1036) 
73.158571591681749

>  <o3da_score_rel>  (1036) 
0.29125490314543023

>  <o3da_align>  (1036) 
0.50564481005036788

>  <RMSD>  (1036) 
7.6039456071724164e-05

>  <CONVERGED>  (1036) 
0

>  <ENERGY>  (1036) 
111.06004386262767

$$$$
905eefff-e240-4f4b-a6d9-cc52b77c7068
     RDKit          3D

 16 17  0  0  0  0  0  0  0  0999 V2000
   -3.6513   28.9717    6.4921 C   0  0  0  0  0  0  0  0  0  0  0  0
   -4.5023   28.3008    5.4118 C   0  0  1  0  0  0  0  0  0  0  0  0
   -4.6428   29.2309    4.2225 N   0  0  0  0  0  4  0  0  0  0  0  0
   -3.4269   29.4056    3.4157 C   0  0  0  0  0  0  0  0  0  0  0  0
   -2.6926   30.5935    3.5070 C   0  0  0  0  0  0  0  0  0  0  0  0
   -1.5740   30.8190    2.7881 N   0  0  0  0  0  0  0  0  0  0  0  0
   -1.1586   29.8518    1.9450 C   0  0  0  0  0  0  0  0  0  0  0  0
   -1.8495   28.6620    1.8094 C   0  0  0  0  0  0  0  0  0  0  0  0
   -2.9697   28.4733    2.5445 N   0  0  0  0  0  4  0  0  0  0  0  0
   -4.0760   26.9144    4.9719 C   0  0  0  0  0  0  0  0  0  0  0  0
   -5.0235   26.0649    4.3693 C   0  0  0  0  0  0  0  0  0  0  0  0
   -4.6504   24.8111    3.8782 C   0  0  0  0  0  0  0  0  0  0  0  0
   -3.3273   24.3852    3.9743 C   0  0  0  0  0  0  0  0  0  0  0  0
   -2.3840   25.2066    4.5793 C   0  0  0  0  0  0  0  0  0  0  0  0
   -0.7425   24.7148    4.6660 Cl  0  0  0  0  0  0  0  0  0  0  0  0
   -2.7500   26.4591    5.0815 C   0  0  0  0  0  0  0  0  0  0  0  0
  2  1  1  1
  2  3  1  0
  3  4  1  0
  4  5  2  0
  5  6  1  0
  6  7  2  0
  7  8  1  0
  8  9  2  0
  2 10  1  0
 10 11  2  0
 11 12  1  0
 12 13  2  0
 13 14  1  0
 14 15  1  0
 14 16  2  0
  9  4  1  0
 16 10  1  0
M  CHG  2   3   1   9   1
M  END
>  <Energy>  (1037) 
112.3934956293984

>  <Energy_Delta>  (1037) 
1.5913448311127496

>  <std_smi>  (1037) 
CC(Nc1cnccn1)c1cccc(Cl)c1

>  <enum_smi>  (1037) 
C[C@@H]([NH2+]c1cncc[nH+]1)c1cccc(Cl)c1

>  <enum_code>  (1037) 
M

>  <parent_uuid>  (1037) 
6620cc01-fc2b-4cc4-81f0-045e40704b17

>  <o3da_score>  (1037) 
75.661584109310894

>  <o3da_score_rel>  (1037) 
0.30121975965551506

>  <o3da_align>  (1037) 
0.6276579577589515

>  <RMSD>  (1037) 
8.5860485626731639e-05

>  <CONVERGED>  (1037) 
0

>  <ENERGY>  (1037) 
112.39349551801804

$$$$
905eefff-e240-4f4b-a6d9-cc52b77c7068
     RDKit          3D

 16 17  0  0  0  0  0  0  0  0999 V2000
   -4.6299   28.3107    6.9791 C   0  0  0  0  0  0  0  0  0  0  0  0
   -4.5406   28.1010    5.4672 C   0  0  1  0  0  0  0  0  0  0  0  0
   -3.5544   29.1107    4.9194 N   0  0  0  0  0  4  0  0  0  0  0  0
   -3.4297   29.0860    3.4558 C   0  0  0  0  0  0  0  0  0  0  0  0
   -2.3294   28.4597    2.8562 C   0  0  0  0  0  0  0  0  0  0  0  0
   -2.1496   28.4163    1.5201 N   0  0  0  0  0  0  0  0  0  0  0  0
   -3.0790   29.0007    0.7390 C   0  0  0  0  0  0  0  0  0  0  0  0
   -4.1828   29.6354    1.2774 C   0  0  0  0  0  0  0  0  0  0  0  0
   -4.3276   29.6656    2.6236 N   0  0  0  0  0  4  0  0  0  0  0  0
   -4.1766   26.6858    5.0784 C   0  0  0  0  0  0  0  0  0  0  0  0
   -3.0589   26.0261    5.6186 C   0  0  0  0  0  0  0  0  0  0  0  0
   -2.7153   24.7409    5.1885 C   0  0  0  0  0  0  0  0  0  0  0  0
   -3.4755   24.0968    4.2138 C   0  0  0  0  0  0  0  0  0  0  0  0
   -4.5885   24.7336    3.6804 C   0  0  0  0  0  0  0  0  0  0  0  0
   -5.5295   23.9643    2.4679 Cl  0  0  0  0  0  0  0  0  0  0  0  0
   -4.9443   26.0151    4.1090 C   0  0  0  0  0  0  0  0  0  0  0  0
  2  1  1  1
  2  3  1  0
  3  4  1  0
  4  5  2  0
  5  6  1  0
  6  7  2  0
  7  8  1  0
  8  9  2  0
  2 10  1  0
 10 11  2  0
 11 12  1  0
 12 13  2  0
 13 14  1  0
 14 15  1  0
 14 16  2  0
  9  4  1  0
 16 10  1  0
M  CHG  2   3   1   9   1
M  END
>  <Energy>  (1038) 
115.27105942575707

>  <Energy_Delta>  (1038) 
4.4689086274714214

>  <std_smi>  (1038) 
CC(Nc1cnccn1)c1cccc(Cl)c1

>  <enum_smi>  (1038) 
C[C@@H]([NH2+]c1cncc[nH+]1)c1cccc(Cl)c1

>  <enum_code>  (1038) 
M

>  <parent_uuid>  (1038) 
6620cc01-fc2b-4cc4-81f0-045e40704b17

>  <o3da_score>  (1038) 
65.667617738020041

>  <o3da_score_rel>  (1038) 
0.26143232744928036

>  <o3da_align>  (1038) 
0.48304838822144236

>  <RMSD>  (1038) 
7.122054225169408e-05

>  <CONVERGED>  (1038) 
0

>  <ENERGY>  (1038) 
115.27105915991305

$$$$
905eefff-e240-4f4b-a6d9-cc52b77c7068
     RDKit          3D

 16 17  0  0  0  0  0  0  0  0999 V2000
   -4.7390   28.3092    6.8962 C   0  0  0  0  0  0  0  0  0  0  0  0
   -4.5899   28.1012    5.3887 C   0  0  1  0  0  0  0  0  0  0  0  0
   -3.5682   29.0992    4.8849 N   0  0  0  0  0  4  0  0  0  0  0  0
   -3.4288   29.1160    3.4230 C   0  0  0  0  0  0  0  0  0  0  0  0
   -2.3694   28.4362    2.8083 C   0  0  0  0  0  0  0  0  0  0  0  0
   -2.1755   28.4372    1.4732 N   0  0  0  0  0  0  0  0  0  0  0  0
   -3.0455   29.1258    0.7090 C   0  0  0  0  0  0  0  0  0  0  0  0
   -4.1063   29.8174    1.2632 C   0  0  0  0  0  0  0  0  0  0  0  0
   -4.2690   29.7970    2.6074 N   0  0  0  0  0  4  0  0  0  0  0  0
   -4.2271   26.6794    5.0253 C   0  0  0  0  0  0  0  0  0  0  0  0
   -5.0235   25.9624    4.1153 C   0  0  0  0  0  0  0  0  0  0  0  0
   -4.6757   24.6637    3.7331 C   0  0  0  0  0  0  0  0  0  0  0  0
   -3.5308   24.0610    4.2509 C   0  0  0  0  0  0  0  0  0  0  0  0
   -2.7428   24.7534    5.1616 C   0  0  0  0  0  0  0  0  0  0  0  0
   -1.3245   24.0292    5.8029 Cl  0  0  0  0  0  0  0  0  0  0  0  0
   -3.0846   26.0510    5.5534 C   0  0  0  0  0  0  0  0  0  0  0  0
  2  1  1  1
  2  3  1  0
  3  4  1  0
  4  5  2  0
  5  6  1  0
  6  7  2  0
  7  8  1  0
  8  9  2  0
  2 10  1  0
 10 11  2  0
 11 12  1  0
 12 13  2  0
 13 14  1  0
 14 15  1  0
 14 16  2  0
  9  4  1  0
 16 10  1  0
M  CHG  2   3   1   9   1
M  END
>  <Energy>  (1039) 
115.83337899900503

>  <Energy_Delta>  (1039) 
5.0312282007193829

>  <std_smi>  (1039) 
CC(Nc1cnccn1)c1cccc(Cl)c1

>  <enum_smi>  (1039) 
C[C@@H]([NH2+]c1cncc[nH+]1)c1cccc(Cl)c1

>  <enum_code>  (1039) 
M

>  <parent_uuid>  (1039) 
6620cc01-fc2b-4cc4-81f0-045e40704b17

>  <o3da_score>  (1039) 
74.995233796211551

>  <o3da_score_rel>  (1039) 
0.29856692224111231

>  <o3da_align>  (1039) 
0.42518051422329406

>  <RMSD>  (1039) 
9.1243011383633884e-05

>  <CONVERGED>  (1039) 
0

>  <ENERGY>  (1039) 
115.83337894483772

$$$$
905eefff-e240-4f4b-a6d9-cc52b77c7068
     RDKit          3D

 16 17  0  0  0  0  0  0  0  0999 V2000
   -3.8897   29.0088    5.3060 C   0  0  0  0  0  0  0  0  0  0  0  0
   -4.7170   28.0083    4.4957 C   0  0  1  0  0  0  0  0  0  0  0  0
   -4.7269   28.4329    3.0391 N   0  0  0  0  0  4  0  0  0  0  0  0
   -3.4920   28.1592    2.2910 C   0  0  0  0  0  0  0  0  0  0  0  0
   -3.3841   26.9962    1.5159 C   0  0  0  0  0  0  0  0  0  0  0  0
   -2.2897   26.7008    0.7848 N   0  0  0  0  0  0  0  0  0  0  0  0
   -1.2604   27.5695    0.8106 C   0  0  0  0  0  0  0  0  0  0  0  0
   -1.3153   28.7356    1.5510 C   0  0  0  0  0  0  0  0  0  0  0  0
   -2.4330   29.0035    2.2670 N   0  0  0  0  0  4  0  0  0  0  0  0
   -4.3605   26.5478    4.6653 C   0  0  0  0  0  0  0  0  0  0  0  0
   -5.3447   25.5686    4.4309 C   0  0  0  0  0  0  0  0  0  0  0  0
   -5.0361   24.2079    4.5146 C   0  0  0  0  0  0  0  0  0  0  0  0
   -3.7420   23.7994    4.8292 C   0  0  0  0  0  0  0  0  0  0  0  0
   -2.7632   24.7539    5.0740 C   0  0  0  0  0  0  0  0  0  0  0  0
   -1.1580   24.2711    5.4476 Cl  0  0  0  0  0  0  0  0  0  0  0  0
   -3.0646   26.1176    4.9995 C   0  0  0  0  0  0  0  0  0  0  0  0
  2  1  1  1
  2  3  1  0
  3  4  1  0
  4  5  2  0
  5  6  1  0
  6  7  2  0
  7  8  1  0
  8  9  2  0
  2 10  1  0
 10 11  2  0
 11 12  1  0
 12 13  2  0
 13 14  1  0
 14 15  1  0
 14 16  2  0
  9  4  1  0
 16 10  1  0
M  CHG  2   3   1   9   1
M  END
>  <Energy>  (1040) 
116.67735264017435

>  <Energy_Delta>  (1040) 
5.8752018418886962

>  <std_smi>  (1040) 
CC(Nc1cnccn1)c1cccc(Cl)c1

>  <enum_smi>  (1040) 
C[C@@H]([NH2+]c1cncc[nH+]1)c1cccc(Cl)c1

>  <enum_code>  (1040) 
M

>  <parent_uuid>  (1040) 
6620cc01-fc2b-4cc4-81f0-045e40704b17

>  <o3da_score>  (1040) 
70.010559950114711

>  <o3da_score_rel>  (1040) 
0.27872221140723419

>  <o3da_align>  (1040) 
0.3886340342480028

>  <RMSD>  (1040) 
7.6577286296386062e-05

>  <CONVERGED>  (1040) 
0

>  <ENERGY>  (1040) 
116.67735237609092

$$$$
905eefff-e240-4f4b-a6d9-cc52b77c7068
     RDKit          3D

 16 17  0  0  0  0  0  0  0  0999 V2000
   -2.6415   27.3611    3.2981 C   0  0  0  0  0  0  0  0  0  0  0  0
   -3.7736   26.9278    4.2310 C   0  0  1  0  0  0  0  0  0  0  0  0
   -3.2191   26.0547    5.3350 N   0  0  0  0  0  4  0  0  0  0  0  0
   -2.8155   24.7177    4.9036 C   0  0  0  0  0  0  0  0  0  0  0  0
   -3.7706   23.6990    4.8048 C   0  0  0  0  0  0  0  0  0  0  0  0
   -3.4635   22.4435    4.4214 N   0  0  0  0  0  0  0  0  0  0  0  0
   -2.1752   22.1680    4.1344 C   0  0  0  0  0  0  0  0  0  0  0  0
   -1.1898   23.1341    4.2232 C   0  0  0  0  0  0  0  0  0  0  0  0
   -1.5364   24.3859    4.6065 N   0  0  0  0  0  4  0  0  0  0  0  0
   -4.5130   28.0918    4.8539 C   0  0  0  0  0  0  0  0  0  0  0  0
   -5.9189   28.1062    4.8520 C   0  0  0  0  0  0  0  0  0  0  0  0
   -6.6236   29.1494    5.4599 C   0  0  0  0  0  0  0  0  0  0  0  0
   -5.9392   30.1901    6.0843 C   0  0  0  0  0  0  0  0  0  0  0  0
   -4.5501   30.1879    6.0942 C   0  0  0  0  0  0  0  0  0  0  0  0
   -3.6895   31.4562    6.8692 Cl  0  0  0  0  0  0  0  0  0  0  0  0
   -3.8364   29.1501    5.4868 C   0  0  0  0  0  0  0  0  0  0  0  0
  2  1  1  1
  2  3  1  0
  3  4  1  0
  4  5  2  0
  5  6  1  0
  6  7  2  0
  7  8  1  0
  8  9  2  0
  2 10  1  0
 10 11  2  0
 11 12  1  0
 12 13  2  0
 13 14  1  0
 14 15  1  0
 14 16  2  0
  9  4  1  0
 16 10  1  0
M  CHG  2   3   1   9   1
M  END
>  <Energy>  (1041) 
117.15066664945836

>  <Energy_Delta>  (1041) 
6.3485158511727064

>  <std_smi>  (1041) 
CC(Nc1cnccn1)c1cccc(Cl)c1

>  <enum_smi>  (1041) 
C[C@@H]([NH2+]c1cncc[nH+]1)c1cccc(Cl)c1

>  <enum_code>  (1041) 
M

>  <parent_uuid>  (1041) 
6620cc01-fc2b-4cc4-81f0-045e40704b17

>  <o3da_score>  (1041) 
67.887267278565517

>  <o3da_score_rel>  (1041) 
0.27026907477612233

>  <o3da_align>  (1041) 
0.56252278692394353

>  <RMSD>  (1041) 
0.0002526719562185877

>  <CONVERGED>  (1041) 
0

>  <ENERGY>  (1041) 
117.15066717988037

$$$$
905eefff-e240-4f4b-a6d9-cc52b77c7068
     RDKit          3D

 16 17  0  0  0  0  0  0  0  0999 V2000
   -3.8206   28.9763    6.5107 C   0  0  0  0  0  0  0  0  0  0  0  0
   -4.5966   28.2339    5.4205 C   0  0  1  0  0  0  0  0  0  0  0  0
   -4.7215   29.1260    4.1990 N   0  0  0  0  0  4  0  0  0  0  0  0
   -3.4849   29.3219    3.4307 C   0  0  0  0  0  0  0  0  0  0  0  0
   -3.1957   28.4968    2.3354 C   0  0  0  0  0  0  0  0  0  0  0  0
   -2.0948   28.6524    1.5708 N   0  0  0  0  0  0  0  0  0  0  0  0
   -1.2457   29.6508    1.8819 C   0  0  0  0  0  0  0  0  0  0  0  0
   -1.4854   30.4996    2.9461 C   0  0  0  0  0  0  0  0  0  0  0  0
   -2.6016   30.3158    3.6902 N   0  0  0  0  0  4  0  0  0  0  0  0
   -4.1101   26.8453    5.0678 C   0  0  0  0  0  0  0  0  0  0  0  0
   -2.7937   26.4117    5.2976 C   0  0  0  0  0  0  0  0  0  0  0  0
   -2.3835   25.1342    4.9018 C   0  0  0  0  0  0  0  0  0  0  0  0
   -3.2760   24.2694    4.2716 C   0  0  0  0  0  0  0  0  0  0  0  0
   -4.5840   24.6782    4.0495 C   0  0  0  0  0  0  0  0  0  0  0  0
   -5.6966   23.6310    3.2676 Cl  0  0  0  0  0  0  0  0  0  0  0  0
   -5.0037   25.9514    4.4445 C   0  0  0  0  0  0  0  0  0  0  0  0
  2  1  1  1
  2  3  1  0
  3  4  1  0
  4  5  2  0
  5  6  1  0
  6  7  2  0
  7  8  1  0
  8  9  2  0
  2 10  1  0
 10 11  2  0
 11 12  1  0
 12 13  2  0
 13 14  1  0
 14 15  1  0
 14 16  2  0
  9  4  1  0
 16 10  1  0
M  CHG  2   3   1   9   1
M  END
>  <Energy>  (1042) 
117.30183578814889

>  <Energy_Delta>  (1042) 
6.4996849898632405

>  <std_smi>  (1042) 
CC(Nc1cnccn1)c1cccc(Cl)c1

>  <enum_smi>  (1042) 
C[C@@H]([NH2+]c1cncc[nH+]1)c1cccc(Cl)c1

>  <enum_code>  (1042) 
M

>  <parent_uuid>  (1042) 
6620cc01-fc2b-4cc4-81f0-045e40704b17

>  <o3da_score>  (1042) 
79.077235300463812

>  <o3da_score_rel>  (1042) 
0.31481796332753603

>  <o3da_align>  (1042) 
0.62011898269527055

>  <RMSD>  (1042) 
8.533653424586586e-05

>  <CONVERGED>  (1042) 
0

>  <ENERGY>  (1042) 
117.30183570122148

$$$$
905eefff-e240-4f4b-a6d9-cc52b77c7068
     RDKit          3D

 16 17  0  0  0  0  0  0  0  0999 V2000
   -4.7480   30.5406    3.3258 C   0  0  0  0  0  0  0  0  0  0  0  0
   -3.9616   29.3083    2.8751 C   0  0  1  0  0  0  0  0  0  0  0  0
   -2.5091   29.4635    3.2686 N   0  0  0  0  0  4  0  0  0  0  0  0
   -1.7654   30.4300    2.4626 C   0  0  0  0  0  0  0  0  0  0  0  0
   -1.2132   30.0372    1.2375 C   0  0  0  0  0  0  0  0  0  0  0  0
   -0.5097   30.8758    0.4504 N   0  0  0  0  0  0  0  0  0  0  0  0
   -0.3285   32.1414    0.8783 C   0  0  0  0  0  0  0  0  0  0  0  0
   -0.8450   32.5800    2.0837 C   0  0  0  0  0  0  0  0  0  0  0  0
   -1.5508   31.7111    2.8458 N   0  0  0  0  0  4  0  0  0  0  0  0
   -4.4806   28.0061    3.4458 C   0  0  0  0  0  0  0  0  0  0  0  0
   -4.8746   27.8727    4.7884 C   0  0  0  0  0  0  0  0  0  0  0  0
   -5.3008   26.6373    5.2865 C   0  0  0  0  0  0  0  0  0  0  0  0
   -5.3325   25.5162    4.4592 C   0  0  0  0  0  0  0  0  0  0  0  0
   -4.9424   25.6331    3.1313 C   0  0  0  0  0  0  0  0  0  0  0  0
   -4.9636   24.2596    2.1011 Cl  0  0  0  0  0  0  0  0  0  0  0  0
   -4.5175   26.8641    2.6238 C   0  0  0  0  0  0  0  0  0  0  0  0
  2  1  1  1
  2  3  1  0
  3  4  1  0
  4  5  2  0
  5  6  1  0
  6  7  2  0
  7  8  1  0
  8  9  2  0
  2 10  1  0
 10 11  2  0
 11 12  1  0
 12 13  2  0
 13 14  1  0
 14 15  1  0
 14 16  2  0
  9  4  1  0
 16 10  1  0
M  CHG  2   3   1   9   1
M  END
>  <Energy>  (1043) 
117.48689465625988

>  <Energy_Delta>  (1043) 
6.684743857974226

>  <std_smi>  (1043) 
CC(Nc1cnccn1)c1cccc(Cl)c1

>  <enum_smi>  (1043) 
C[C@@H]([NH2+]c1cncc[nH+]1)c1cccc(Cl)c1

>  <enum_code>  (1043) 
M

>  <parent_uuid>  (1043) 
6620cc01-fc2b-4cc4-81f0-045e40704b17

>  <o3da_score>  (1043) 
61.925367436447672

>  <o3da_score_rel>  (1043) 
0.24653388526517483

>  <o3da_align>  (1043) 
0.45380850631371139

>  <RMSD>  (1043) 
0.00015034782216921745

>  <CONVERGED>  (1043) 
0

>  <ENERGY>  (1043) 
117.48689477738526

$$$$
905eefff-e240-4f4b-a6d9-cc52b77c7068
     RDKit          3D

 16 17  0  0  0  0  0  0  0  0999 V2000
   -2.8832   28.6659    6.3246 C   0  0  0  0  0  0  0  0  0  0  0  0
   -3.0929   28.4249    4.8294 C   0  0  1  0  0  0  0  0  0  0  0  0
   -4.5357   28.0711    4.5545 N   0  0  0  0  0  4  0  0  0  0  0  0
   -4.9047   26.7009    4.9056 C   0  0  0  0  0  0  0  0  0  0  0  0
   -5.5565   26.4388    6.1160 C   0  0  0  0  0  0  0  0  0  0  0  0
   -5.9358   25.1996    6.4886 N   0  0  0  0  0  0  0  0  0  0  0  0
   -5.6804   24.1797    5.6447 C   0  0  0  0  0  0  0  0  0  0  0  0
   -5.0487   24.3835    4.4317 C   0  0  0  0  0  0  0  0  0  0  0  0
   -4.6781   25.6412    4.0926 N   0  0  0  0  0  4  0  0  0  0  0  0
   -2.7121   29.6106    3.9694 C   0  0  0  0  0  0  0  0  0  0  0  0
   -3.1611   30.9129    4.2499 C   0  0  0  0  0  0  0  0  0  0  0  0
   -2.8304   31.9776    3.4057 C   0  0  0  0  0  0  0  0  0  0  0  0
   -2.0555   31.7606    2.2678 C   0  0  0  0  0  0  0  0  0  0  0  0
   -1.6057   30.4785    1.9794 C   0  0  0  0  0  0  0  0  0  0  0  0
   -0.6606   30.1888    0.5753 Cl  0  0  0  0  0  0  0  0  0  0  0  0
   -1.9280   29.4086    2.8191 C   0  0  0  0  0  0  0  0  0  0  0  0
  2  1  1  1
  2  3  1  0
  3  4  1  0
  4  5  2  0
  5  6  1  0
  6  7  2  0
  7  8  1  0
  8  9  2  0
  2 10  1  0
 10 11  2  0
 11 12  1  0
 12 13  2  0
 13 14  1  0
 14 15  1  0
 14 16  2  0
  9  4  1  0
 16 10  1  0
M  CHG  2   3   1   9   1
M  END
>  <Energy>  (1044) 
117.67198058162101

>  <Energy_Delta>  (1044) 
6.8698297833353621

>  <std_smi>  (1044) 
CC(Nc1cnccn1)c1cccc(Cl)c1

>  <enum_smi>  (1044) 
C[C@@H]([NH2+]c1cncc[nH+]1)c1cccc(Cl)c1

>  <enum_code>  (1044) 
M

>  <parent_uuid>  (1044) 
6620cc01-fc2b-4cc4-81f0-045e40704b17

>  <o3da_score>  (1044) 
71.492276699740742

>  <o3da_score_rel>  (1044) 
0.28462114107483255

>  <o3da_align>  (1044) 
0.69460901553550336

>  <RMSD>  (1044) 
9.1282251271155681e-05

>  <CONVERGED>  (1044) 
0

>  <ENERGY>  (1044) 
117.6719805575062

$$$$
905eefff-e240-4f4b-a6d9-cc52b77c7068
     RDKit          3D

 16 17  0  0  0  0  0  0  0  0999 V2000
   -5.9961   28.4078    4.5133 C   0  0  0  0  0  0  0  0  0  0  0  0
   -4.6545   27.7794    4.8900 C   0  0  1  0  0  0  0  0  0  0  0  0
   -4.2724   26.7166    3.8858 N   0  0  0  0  0  4  0  0  0  0  0  0
   -5.0020   25.4570    4.0225 C   0  0  0  0  0  0  0  0  0  0  0  0
   -6.0981   25.1883    3.1947 C   0  0  0  0  0  0  0  0  0  0  0  0
   -6.8001   24.0390    3.2614 N   0  0  0  0  0  0  0  0  0  0  0  0
   -6.4120   23.1122    4.1601 C   0  0  0  0  0  0  0  0  0  0  0  0
   -5.3298   23.3211    4.9949 C   0  0  0  0  0  0  0  0  0  0  0  0
   -4.6511   24.4895    4.9032 N   0  0  0  0  0  4  0  0  0  0  0  0
   -3.5394   28.7986    4.9805 C   0  0  0  0  0  0  0  0  0  0  0  0
   -2.7869   28.9154    6.1618 C   0  0  0  0  0  0  0  0  0  0  0  0
   -1.7315   29.8282    6.2479 C   0  0  0  0  0  0  0  0  0  0  0  0
   -1.4083   30.6348    5.1585 C   0  0  0  0  0  0  0  0  0  0  0  0
   -2.1478   30.5334    3.9867 C   0  0  0  0  0  0  0  0  0  0  0  0
   -1.7586   31.5146    2.6323 Cl  0  0  0  0  0  0  0  0  0  0  0  0
   -3.2070   29.6258    3.8920 C   0  0  0  0  0  0  0  0  0  0  0  0
  2  1  1  6
  2  3  1  0
  3  4  1  0
  4  5  2  0
  5  6  1  0
  6  7  2  0
  7  8  1  0
  8  9  2  0
  2 10  1  0
 10 11  2  0
 11 12  1  0
 12 13  2  0
 13 14  1  0
 14 15  1  0
 14 16  2  0
  9  4  1  0
 16 10  1  0
M  CHG  2   3   1   9   1
M  END
>  <Energy>  (1045) 
117.93569402358273

>  <Energy_Delta>  (1045) 
7.1335432252970747

>  <std_smi>  (1045) 
CC(Nc1cnccn1)c1cccc(Cl)c1

>  <enum_smi>  (1045) 
C[C@@H]([NH2+]c1cncc[nH+]1)c1cccc(Cl)c1

>  <enum_code>  (1045) 
M

>  <parent_uuid>  (1045) 
6620cc01-fc2b-4cc4-81f0-045e40704b17

>  <o3da_score>  (1045) 
65.920256183875324

>  <o3da_score_rel>  (1045) 
0.26243811780955523

>  <o3da_align>  (1045) 
0.5047296886977598

>  <RMSD>  (1045) 
6.5528252385863592e-05

>  <CONVERGED>  (1045) 
0

>  <ENERGY>  (1045) 
117.93569388214593

$$$$
5cb365ce-a3bb-4dc8-a7df-7a75e26b34b8
     RDKit          3D

 16 17  0  0  0  0  0  0  0  0999 V2000
   -4.7510   28.3141    6.7678 C   0  0  0  0  0  0  0  0  0  0  0  0
   -4.4563   28.1337    5.2763 C   0  0  1  0  0  0  0  0  0  0  0  0
   -3.3597   29.0812    4.9125 N   0  0  0  0  0  4  0  0  0  0  0  0
   -3.2849   29.3293    3.4966 C   0  0  0  0  0  0  0  0  0  0  0  0
   -2.5258   28.5611    2.6217 C   0  0  0  0  0  0  0  0  0  0  0  0
   -2.4491   28.8508    1.3033 N   0  0  0  0  0  0  0  0  0  0  0  0
   -3.1459   29.9372    0.8947 C   0  0  0  0  0  0  0  0  0  0  0  0
   -3.8899   30.7015    1.7791 C   0  0  0  0  0  0  0  0  0  0  0  0
   -3.9715   30.4135    3.1056 N   0  0  0  0  0  0  0  0  0  0  0  0
   -4.1134   26.6992    4.9272 C   0  0  0  0  0  0  0  0  0  0  0  0
   -4.8087   26.0483    3.8932 C   0  0  0  0  0  0  0  0  0  0  0  0
   -4.4844   24.7393    3.5277 C   0  0  0  0  0  0  0  0  0  0  0  0
   -3.4615   24.0604    4.1869 C   0  0  0  0  0  0  0  0  0  0  0  0
   -2.7680   24.6918    5.2132 C   0  0  0  0  0  0  0  0  0  0  0  0
   -1.4985   23.8677    6.0273 Cl  0  0  0  0  0  0  0  0  0  0  0  0
   -3.0854   26.0007    5.5853 C   0  0  0  0  0  0  0  0  0  0  0  0
  2  1  1  1
  2  3  1  0
  3  4  1  0
  4  5  2  0
  5  6  1  0
  6  7  2  0
  7  8  1  0
  8  9  2  0
  2 10  1  0
 10 11  2  0
 11 12  1  0
 12 13  2  0
 13 14  1  0
 14 15  1  0
 14 16  2  0
  9  4  1  0
 16 10  1  0
M  CHG  1   3   1
M  END
>  <Energy>  (1046) 
30.023163116940303

>  <Energy_Delta>  (1046) 
0

>  <std_smi>  (1046) 
CC(Nc1cnccn1)c1cccc(Cl)c1

>  <enum_smi>  (1046) 
C[C@@H]([NH2+]c1cnccn1)c1cccc(Cl)c1

>  <enum_code>  (1046) 
M

>  <parent_uuid>  (1046) 
6620cc01-fc2b-4cc4-81f0-045e40704b17

>  <o3da_score>  (1046) 
72.990829286202157

>  <o3da_score_rel>  (1046) 
0.29058709665505034

>  <o3da_align>  (1046) 
0.48827449176609655

>  <RMSD>  (1046) 
6.2635605552554917e-05

>  <CONVERGED>  (1046) 
0

>  <ENERGY>  (1046) 
30.02316310522589

$$$$
5cb365ce-a3bb-4dc8-a7df-7a75e26b34b8
     RDKit          3D

 16 17  0  0  0  0  0  0  0  0999 V2000
   -5.5761   25.9050    4.0398 C   0  0  0  0  0  0  0  0  0  0  0  0
   -4.2524   26.5872    4.3955 C   0  0  1  0  0  0  0  0  0  0  0  0
   -4.5718   27.9453    4.9301 N   0  0  0  0  0  4  0  0  0  0  0  0
   -3.4381   28.8322    4.9094 C   0  0  0  0  0  0  0  0  0  0  0  0
   -2.5467   28.9605    5.9681 C   0  0  0  0  0  0  0  0  0  0  0  0
   -1.5168   29.8351    5.9295 N   0  0  0  0  0  0  0  0  0  0  0  0
   -1.4140   30.5785    4.8028 C   0  0  0  0  0  0  0  0  0  0  0  0
   -2.3156   30.4489    3.7586 C   0  0  0  0  0  0  0  0  0  0  0  0
   -3.3548   29.5722    3.7937 N   0  0  0  0  0  0  0  0  0  0  0  0
   -3.4241   25.7694    5.3666 C   0  0  0  0  0  0  0  0  0  0  0  0
   -3.9460   25.3048    6.5868 C   0  0  0  0  0  0  0  0  0  0  0  0
   -3.1433   24.5855    7.4766 C   0  0  0  0  0  0  0  0  0  0  0  0
   -1.8104   24.3227    7.1650 C   0  0  0  0  0  0  0  0  0  0  0  0
   -1.2827   24.7757    5.9610 C   0  0  0  0  0  0  0  0  0  0  0  0
    0.3607   24.4610    5.5706 Cl  0  0  0  0  0  0  0  0  0  0  0  0
   -2.0779   25.4938    5.0656 C   0  0  0  0  0  0  0  0  0  0  0  0
  2  1  1  1
  2  3  1  0
  3  4  1  0
  4  5  2  0
  5  6  1  0
  6  7  2  0
  7  8  1  0
  8  9  2  0
  2 10  1  0
 10 11  2  0
 11 12  1  0
 12 13  2  0
 13 14  1  0
 14 15  1  0
 14 16  2  0
  9  4  1  0
 16 10  1  0
M  CHG  1   3   1
M  END
>  <Energy>  (1047) 
30.233931754177171

>  <Energy_Delta>  (1047) 
0.21076863723686756

>  <std_smi>  (1047) 
CC(Nc1cnccn1)c1cccc(Cl)c1

>  <enum_smi>  (1047) 
C[C@@H]([NH2+]c1cnccn1)c1cccc(Cl)c1

>  <enum_code>  (1047) 
M

>  <parent_uuid>  (1047) 
6620cc01-fc2b-4cc4-81f0-045e40704b17

>  <o3da_score>  (1047) 
65.242166082232217

>  <o3da_score_rel>  (1047) 
0.25973854259121687

>  <o3da_align>  (1047) 
0.52558815663103819

>  <RMSD>  (1047) 
5.592631115492153e-05

>  <CONVERGED>  (1047) 
0

>  <ENERGY>  (1047) 
30.233931742005193

$$$$
5cb365ce-a3bb-4dc8-a7df-7a75e26b34b8
     RDKit          3D

 16 17  0  0  0  0  0  0  0  0999 V2000
   -2.5269   27.1819    3.4751 C   0  0  0  0  0  0  0  0  0  0  0  0
   -3.7325   26.8009    4.3385 C   0  0  1  0  0  0  0  0  0  0  0  0
   -3.3025   26.0117    5.5275 N   0  0  0  0  0  4  0  0  0  0  0  0
   -2.8344   24.6896    5.2210 C   0  0  0  0  0  0  0  0  0  0  0  0
   -3.6854   23.6280    4.9381 C   0  0  0  0  0  0  0  0  0  0  0  0
   -3.2157   22.3878    4.6798 N   0  0  0  0  0  0  0  0  0  0  0  0
   -1.8698   22.2440    4.7294 C   0  0  0  0  0  0  0  0  0  0  0  0
   -1.0326   23.3076    5.0267 C   0  0  0  0  0  0  0  0  0  0  0  0
   -1.5021   24.5577    5.2833 N   0  0  0  0  0  0  0  0  0  0  0  0
   -4.5173   28.0141    4.8020 C   0  0  0  0  0  0  0  0  0  0  0  0
   -5.9046   28.0761    4.5842 C   0  0  0  0  0  0  0  0  0  0  0  0
   -6.6496   29.1706    5.0317 C   0  0  0  0  0  0  0  0  0  0  0  0
   -6.0234   30.2160    5.7077 C   0  0  0  0  0  0  0  0  0  0  0  0
   -4.6521   30.1655    5.9323 C   0  0  0  0  0  0  0  0  0  0  0  0
   -3.8712   31.4455    6.7723 Cl  0  0  0  0  0  0  0  0  0  0  0  0
   -3.8993   29.0757    5.4874 C   0  0  0  0  0  0  0  0  0  0  0  0
  2  1  1  1
  2  3  1  0
  3  4  1  0
  4  5  2  0
  5  6  1  0
  6  7  2  0
  7  8  1  0
  8  9  2  0
  2 10  1  0
 10 11  2  0
 11 12  1  0
 12 13  2  0
 13 14  1  0
 14 15  1  0
 14 16  2  0
  9  4  1  0
 16 10  1  0
M  CHG  1   3   1
M  END
>  <Energy>  (1048) 
31.407253546517865

>  <Energy_Delta>  (1048) 
1.3840904295775616

>  <std_smi>  (1048) 
CC(Nc1cnccn1)c1cccc(Cl)c1

>  <enum_smi>  (1048) 
C[C@@H]([NH2+]c1cnccn1)c1cccc(Cl)c1

>  <enum_code>  (1048) 
M

>  <parent_uuid>  (1048) 
6620cc01-fc2b-4cc4-81f0-045e40704b17

>  <o3da_score>  (1048) 
66.497858185096732

>  <o3da_score_rel>  (1048) 
0.26473763529960798

>  <o3da_align>  (1048) 
0.41881857759336732

>  <RMSD>  (1048) 
8.0519852635396944e-05

>  <CONVERGED>  (1048) 
0

>  <ENERGY>  (1048) 
31.407253542611063

$$$$
5cb365ce-a3bb-4dc8-a7df-7a75e26b34b8
     RDKit          3D

 16 17  0  0  0  0  0  0  0  0999 V2000
   -2.2985   28.3781    3.1418 C   0  0  0  0  0  0  0  0  0  0  0  0
   -3.7939   28.5589    3.4167 C   0  0  1  0  0  0  0  0  0  0  0  0
   -4.1755   27.9184    4.7070 N   0  0  0  0  0  4  0  0  0  0  0  0
   -4.1179   26.4842    4.6955 C   0  0  0  0  0  0  0  0  0  0  0  0
   -5.0972   25.6881    4.1136 C   0  0  0  0  0  0  0  0  0  0  0  0
   -5.0284   24.3391    4.1429 N   0  0  0  0  0  0  0  0  0  0  0  0
   -3.9571   23.8159    4.7854 C   0  0  0  0  0  0  0  0  0  0  0  0
   -2.9946   24.6207    5.3740 C   0  0  0  0  0  0  0  0  0  0  0  0
   -3.0588   25.9787    5.3434 N   0  0  0  0  0  0  0  0  0  0  0  0
   -4.2119   30.0177    3.4471 C   0  0  0  0  0  0  0  0  0  0  0  0
   -3.5299   30.9722    4.2221 C   0  0  0  0  0  0  0  0  0  0  0  0
   -3.9614   32.3013    4.2587 C   0  0  0  0  0  0  0  0  0  0  0  0
   -5.0820   32.6961    3.5303 C   0  0  0  0  0  0  0  0  0  0  0  0
   -5.7686   31.7606    2.7645 C   0  0  0  0  0  0  0  0  0  0  0  0
   -7.1572   32.2349    1.8699 Cl  0  0  0  0  0  0  0  0  0  0  0  0
   -5.3436   30.4306    2.7212 C   0  0  0  0  0  0  0  0  0  0  0  0
  2  1  1  1
  2  3  1  0
  3  4  1  0
  4  5  2  0
  5  6  1  0
  6  7  2  0
  7  8  1  0
  8  9  2  0
  2 10  1  0
 10 11  2  0
 11 12  1  0
 12 13  2  0
 13 14  1  0
 14 15  1  0
 14 16  2  0
  9  4  1  0
 16 10  1  0
M  CHG  1   3   1
M  END
>  <Energy>  (1049) 
31.466324510369564

>  <Energy_Delta>  (1049) 
1.4431613934292606

>  <std_smi>  (1049) 
CC(Nc1cnccn1)c1cccc(Cl)c1

>  <enum_smi>  (1049) 
C[C@@H]([NH2+]c1cnccn1)c1cccc(Cl)c1

>  <enum_code>  (1049) 
M

>  <parent_uuid>  (1049) 
6620cc01-fc2b-4cc4-81f0-045e40704b17

>  <o3da_score>  (1049) 
65.331487743430515

>  <o3da_score_rel>  (1049) 
0.26009414510251655

>  <o3da_align>  (1049) 
0.62777089312773726

>  <RMSD>  (1049) 
8.0469714197005862e-05

>  <CONVERGED>  (1049) 
0

>  <ENERGY>  (1049) 
31.466324538875849

$$$$
5cb365ce-a3bb-4dc8-a7df-7a75e26b34b8
     RDKit          3D

 16 17  0  0  0  0  0  0  0  0999 V2000
   -2.7382   29.4210    6.2787 C   0  0  0  0  0  0  0  0  0  0  0  0
   -3.3644   29.0076    4.9445 C   0  0  1  0  0  0  0  0  0  0  0  0
   -2.4776   29.3983    3.8102 N   0  0  0  0  0  4  0  0  0  0  0  0
   -2.5058   30.8032    3.5135 C   0  0  0  0  0  0  0  0  0  0  0  0
   -1.5492   31.6956    3.9821 C   0  0  0  0  0  0  0  0  0  0  0  0
   -1.5771   33.0071    3.6573 N   0  0  0  0  0  0  0  0  0  0  0  0
   -2.5838   33.3915    2.8375 C   0  0  0  0  0  0  0  0  0  0  0  0
   -3.5240   32.4900    2.3650 C   0  0  0  0  0  0  0  0  0  0  0  0
   -3.5007   31.1703    2.6927 N   0  0  0  0  0  0  0  0  0  0  0  0
   -3.6424   27.5172    4.8623 C   0  0  0  0  0  0  0  0  0  0  0  0
   -4.8753   27.0693    4.3554 C   0  0  0  0  0  0  0  0  0  0  0  0
   -5.1445   25.7037    4.2322 C   0  0  0  0  0  0  0  0  0  0  0  0
   -4.1854   24.7640    4.6044 C   0  0  0  0  0  0  0  0  0  0  0  0
   -2.9590   25.1936    5.0995 C   0  0  0  0  0  0  0  0  0  0  0  0
   -1.7638   24.0432    5.5497 Cl  0  0  0  0  0  0  0  0  0  0  0  0
   -2.6817   26.5574    5.2269 C   0  0  0  0  0  0  0  0  0  0  0  0
  2  1  1  1
  2  3  1  0
  3  4  1  0
  4  5  2  0
  5  6  1  0
  6  7  2  0
  7  8  1  0
  8  9  2  0
  2 10  1  0
 10 11  2  0
 11 12  1  0
 12 13  2  0
 13 14  1  0
 14 15  1  0
 14 16  2  0
  9  4  1  0
 16 10  1  0
M  CHG  1   3   1
M  END
>  <Energy>  (1050) 
31.639813554129333

>  <Energy_Delta>  (1050) 
1.6166504371890298

>  <std_smi>  (1050) 
CC(Nc1cnccn1)c1cccc(Cl)c1

>  <enum_smi>  (1050) 
C[C@@H]([NH2+]c1cnccn1)c1cccc(Cl)c1

>  <enum_code>  (1050) 
M

>  <parent_uuid>  (1050) 
6620cc01-fc2b-4cc4-81f0-045e40704b17

>  <o3da_score>  (1050) 
68.68932024376258

>  <o3da_score_rel>  (1050) 
0.27346216416556224

>  <o3da_align>  (1050) 
0.59057415747428632

>  <RMSD>  (1050) 
9.6198868378880972e-05

>  <CONVERGED>  (1050) 
0

>  <ENERGY>  (1050) 
31.639813586271604

$$$$
5cb365ce-a3bb-4dc8-a7df-7a75e26b34b8
     RDKit          3D

 16 17  0  0  0  0  0  0  0  0999 V2000
   -0.5397   27.5416    1.9415 C   0  0  0  0  0  0  0  0  0  0  0  0
   -1.6986   28.2657    2.6315 C   0  0  1  0  0  0  0  0  0  0  0  0
   -2.2881   29.2878    1.7186 N   0  0  0  0  0  4  0  0  0  0  0  0
   -1.4864   30.4717    1.5840 C   0  0  0  0  0  0  0  0  0  0  0  0
   -0.6130   30.6791    0.5233 C   0  0  0  0  0  0  0  0  0  0  0  0
    0.1024   31.8190    0.4006 N   0  0  0  0  0  0  0  0  0  0  0  0
   -0.0966   32.7482    1.3653 C   0  0  0  0  0  0  0  0  0  0  0  0
   -0.9808   32.5361    2.4108 C   0  0  0  0  0  0  0  0  0  0  0  0
   -1.6998   31.3888    2.5386 N   0  0  0  0  0  0  0  0  0  0  0  0
   -2.7997   27.3267    3.0921 C   0  0  0  0  0  0  0  0  0  0  0  0
   -3.2763   26.2732    2.2929 C   0  0  0  0  0  0  0  0  0  0  0  0
   -4.3208   25.4571    2.7377 C   0  0  0  0  0  0  0  0  0  0  0  0
   -4.9114   25.6852    3.9793 C   0  0  0  0  0  0  0  0  0  0  0  0
   -4.4562   26.7301    4.7754 C   0  0  0  0  0  0  0  0  0  0  0  0
   -5.1854   27.0271    6.3028 Cl  0  0  0  0  0  0  0  0  0  0  0  0
   -3.4125   27.5493    4.3393 C   0  0  0  0  0  0  0  0  0  0  0  0
  2  1  1  6
  2  3  1  0
  3  4  1  0
  4  5  2  0
  5  6  1  0
  6  7  2  0
  7  8  1  0
  8  9  2  0
  2 10  1  0
 10 11  2  0
 11 12  1  0
 12 13  2  0
 13 14  1  0
 14 15  1  0
 14 16  2  0
  9  4  1  0
 16 10  1  0
M  CHG  1   3   1
M  END
>  <Energy>  (1051) 
31.81501816094077

>  <Energy_Delta>  (1051) 
1.7918550440004672

>  <std_smi>  (1051) 
CC(Nc1cnccn1)c1cccc(Cl)c1

>  <enum_smi>  (1051) 
C[C@@H]([NH2+]c1cnccn1)c1cccc(Cl)c1

>  <enum_code>  (1051) 
M

>  <parent_uuid>  (1051) 
6620cc01-fc2b-4cc4-81f0-045e40704b17

>  <o3da_score>  (1051) 
68.536193461293678

>  <o3da_score_rel>  (1051) 
0.27285254419586313

>  <o3da_align>  (1051) 
0.38857281079693856

>  <RMSD>  (1051) 
6.5547333822019887e-05

>  <CONVERGED>  (1051) 
0

>  <ENERGY>  (1051) 
31.815018158949378

$$$$
5cb365ce-a3bb-4dc8-a7df-7a75e26b34b8
     RDKit          3D

 16 17  0  0  0  0  0  0  0  0999 V2000
   -4.2790   30.3180    5.0511 C   0  0  0  0  0  0  0  0  0  0  0  0
   -3.7100   28.9502    4.6664 C   0  0  1  0  0  0  0  0  0  0  0  0
   -4.6610   27.9119    5.1642 N   0  0  0  0  0  4  0  0  0  0  0  0
   -4.2342   26.5587    4.9236 C   0  0  0  0  0  0  0  0  0  0  0  0
   -3.1570   25.9645    5.5699 C   0  0  0  0  0  0  0  0  0  0  0  0
   -2.8006   24.6833    5.3309 N   0  0  0  0  0  0  0  0  0  0  0  0
   -3.5654   24.0168    4.4331 C   0  0  0  0  0  0  0  0  0  0  0  0
   -4.6489   24.6150    3.8092 C   0  0  0  0  0  0  0  0  0  0  0  0
   -5.0123   25.9021    4.0519 N   0  0  0  0  0  0  0  0  0  0  0  0
   -3.4262   28.8521    3.1809 C   0  0  0  0  0  0  0  0  0  0  0  0
   -2.1269   28.5523    2.7354 C   0  0  0  0  0  0  0  0  0  0  0  0
   -1.8493   28.4318    1.3712 C   0  0  0  0  0  0  0  0  0  0  0  0
   -2.8634   28.6060    0.4316 C   0  0  0  0  0  0  0  0  0  0  0  0
   -4.1527   28.9035    0.8592 C   0  0  0  0  0  0  0  0  0  0  0  0
   -5.4119   29.1146   -0.2918 Cl  0  0  0  0  0  0  0  0  0  0  0  0
   -4.4386   29.0284    2.2209 C   0  0  0  0  0  0  0  0  0  0  0  0
  2  1  1  6
  2  3  1  0
  3  4  1  0
  4  5  2  0
  5  6  1  0
  6  7  2  0
  7  8  1  0
  8  9  2  0
  2 10  1  0
 10 11  2  0
 11 12  1  0
 12 13  2  0
 13 14  1  0
 14 15  1  0
 14 16  2  0
  9  4  1  0
 16 10  1  0
M  CHG  1   3   1
M  END
>  <Energy>  (1052) 
31.976904159590124

>  <Energy_Delta>  (1052) 
1.9537410426498205

>  <std_smi>  (1052) 
CC(Nc1cnccn1)c1cccc(Cl)c1

>  <enum_smi>  (1052) 
C[C@@H]([NH2+]c1cnccn1)c1cccc(Cl)c1

>  <enum_code>  (1052) 
M

>  <parent_uuid>  (1052) 
6620cc01-fc2b-4cc4-81f0-045e40704b17

>  <o3da_score>  (1052) 
78.914466892573756

>  <o3da_score_rel>  (1052) 
0.31416995864614689

>  <o3da_align>  (1052) 
0.42692849679239436

>  <RMSD>  (1052) 
6.6979922291462925e-05

>  <CONVERGED>  (1052) 
0

>  <ENERGY>  (1052) 
31.976904151506268

$$$$
5cb365ce-a3bb-4dc8-a7df-7a75e26b34b8
     RDKit          3D

 16 17  0  0  0  0  0  0  0  0999 V2000
   -3.7048   29.0096    5.0520 C   0  0  0  0  0  0  0  0  0  0  0  0
   -4.4941   27.9994    4.2128 C   0  0  1  0  0  0  0  0  0  0  0  0
   -4.4534   28.3618    2.7632 N   0  0  0  0  0  4  0  0  0  0  0  0
   -3.1456   28.3556    2.1619 C   0  0  0  0  0  0  0  0  0  0  0  0
   -2.5415   27.2157    1.6443 C   0  0  0  0  0  0  0  0  0  0  0  0
   -1.3351   27.2615    1.0352 N   0  0  0  0  0  0  0  0  0  0  0  0
   -0.7635   28.4853    0.9464 C   0  0  0  0  0  0  0  0  0  0  0  0
   -1.3839   29.6177    1.4483 C   0  0  0  0  0  0  0  0  0  0  0  0
   -2.5964   29.5758    2.0623 N   0  0  0  0  0  0  0  0  0  0  0  0
   -4.1853   26.5351    4.4585 C   0  0  0  0  0  0  0  0  0  0  0  0
   -2.9338   26.0871    4.9133 C   0  0  0  0  0  0  0  0  0  0  0  0
   -2.6819   24.7225    5.0857 C   0  0  0  0  0  0  0  0  0  0  0  0
   -3.6724   23.7830    4.8068 C   0  0  0  0  0  0  0  0  0  0  0  0
   -4.9163   24.2110    4.3592 C   0  0  0  0  0  0  0  0  0  0  0  0
   -6.1451   23.0638    4.0042 Cl  0  0  0  0  0  0  0  0  0  0  0  0
   -5.1761   25.5724    4.1840 C   0  0  0  0  0  0  0  0  0  0  0  0
  2  1  1  1
  2  3  1  0
  3  4  1  0
  4  5  2  0
  5  6  1  0
  6  7  2  0
  7  8  1  0
  8  9  2  0
  2 10  1  0
 10 11  2  0
 11 12  1  0
 12 13  2  0
 13 14  1  0
 14 15  1  0
 14 16  2  0
  9  4  1  0
 16 10  1  0
M  CHG  1   3   1
M  END
>  <Energy>  (1053) 
32.257438096869386

>  <Energy_Delta>  (1053) 
2.2342749799290829

>  <std_smi>  (1053) 
CC(Nc1cnccn1)c1cccc(Cl)c1

>  <enum_smi>  (1053) 
C[C@@H]([NH2+]c1cnccn1)c1cccc(Cl)c1

>  <enum_code>  (1053) 
M

>  <parent_uuid>  (1053) 
6620cc01-fc2b-4cc4-81f0-045e40704b17

>  <o3da_score>  (1053) 
63.50468701544564

>  <o3da_score_rel>  (1053) 
0.25282138597779175

>  <o3da_align>  (1053) 
0.40194633684755798

>  <RMSD>  (1053) 
7.3872833872222696e-05

>  <CONVERGED>  (1053) 
0

>  <ENERGY>  (1053) 
32.25743807335764

$$$$
5cb365ce-a3bb-4dc8-a7df-7a75e26b34b8
     RDKit          3D

 16 17  0  0  0  0  0  0  0  0999 V2000
   -4.0737   28.8639    6.3471 C   0  0  0  0  0  0  0  0  0  0  0  0
   -4.6649   28.1828    5.1083 C   0  0  1  0  0  0  0  0  0  0  0  0
   -4.4411   29.0121    3.8852 N   0  0  0  0  0  4  0  0  0  0  0  0
   -3.0634   29.2101    3.5176 C   0  0  0  0  0  0  0  0  0  0  0  0
   -2.3443   28.3213    2.7268 C   0  0  0  0  0  0  0  0  0  0  0  0
   -1.0699   28.5709    2.3509 N   0  0  0  0  0  0  0  0  0  0  0  0
   -0.5450   29.7421    2.7809 C   0  0  0  0  0  0  0  0  0  0  0  0
   -1.2776   30.6293    3.5525 C   0  0  0  0  0  0  0  0  0  0  0  0
   -2.5608   30.3837    3.9300 N   0  0  0  0  0  0  0  0  0  0  0  0
   -4.2979   26.7255    4.9043 C   0  0  0  0  0  0  0  0  0  0  0  0
   -5.1820   25.8854    4.2004 C   0  0  0  0  0  0  0  0  0  0  0  0
   -4.8615   24.5467    3.9603 C   0  0  0  0  0  0  0  0  0  0  0  0
   -3.6529   24.0242    4.4150 C   0  0  0  0  0  0  0  0  0  0  0  0
   -2.7703   24.8410    5.1129 C   0  0  0  0  0  0  0  0  0  0  0  0
   -1.2739   24.2064    5.6712 Cl  0  0  0  0  0  0  0  0  0  0  0  0
   -3.0841   26.1807    5.3581 C   0  0  0  0  0  0  0  0  0  0  0  0
  2  1  1  1
  2  3  1  0
  3  4  1  0
  4  5  2  0
  5  6  1  0
  6  7  2  0
  7  8  1  0
  8  9  2  0
  2 10  1  0
 10 11  2  0
 11 12  1  0
 12 13  2  0
 13 14  1  0
 14 15  1  0
 14 16  2  0
  9  4  1  0
 16 10  1  0
M  CHG  1   3   1
M  END
>  <Energy>  (1054) 
32.47550279724566

>  <Energy_Delta>  (1054) 
2.4523396803053572

>  <std_smi>  (1054) 
CC(Nc1cnccn1)c1cccc(Cl)c1

>  <enum_smi>  (1054) 
C[C@@H]([NH2+]c1cnccn1)c1cccc(Cl)c1

>  <enum_code>  (1054) 
M

>  <parent_uuid>  (1054) 
6620cc01-fc2b-4cc4-81f0-045e40704b17

>  <o3da_score>  (1054) 
72.124604474348104

>  <o3da_score_rel>  (1054) 
0.28713852982016413

>  <o3da_align>  (1054) 
0.29491256866694576

>  <RMSD>  (1054) 
7.4686308603458837e-05

>  <CONVERGED>  (1054) 
0

>  <ENERGY>  (1054) 
32.475502795975899

$$$$
5cb365ce-a3bb-4dc8-a7df-7a75e26b34b8
     RDKit          3D

 16 17  0  0  0  0  0  0  0  0999 V2000
   -3.4734   29.8990    6.4788 C   0  0  0  0  0  0  0  0  0  0  0  0
   -3.8038   28.7434    5.5302 C   0  0  1  0  0  0  0  0  0  0  0  0
   -4.1527   29.2731    4.1757 N   0  0  0  0  0  4  0  0  0  0  0  0
   -3.0404   29.6099    3.3274 C   0  0  0  0  0  0  0  0  0  0  0  0
   -2.3465   30.8108    3.4011 C   0  0  0  0  0  0  0  0  0  0  0  0
   -1.3323   31.1036    2.5566 N   0  0  0  0  0  0  0  0  0  0  0  0
   -1.0503   30.1621    1.6250 C   0  0  0  0  0  0  0  0  0  0  0  0
   -1.7680   28.9802    1.5418 C   0  0  0  0  0  0  0  0  0  0  0  0
   -2.7911   28.6871    2.3869 N   0  0  0  0  0  0  0  0  0  0  0  0
   -2.8115   27.5962    5.5072 C   0  0  0  0  0  0  0  0  0  0  0  0
   -1.4437   27.7661    5.7823 C   0  0  0  0  0  0  0  0  0  0  0  0
   -0.5598   26.6845    5.7136 C   0  0  0  0  0  0  0  0  0  0  0  0
   -1.0236   25.4181    5.3642 C   0  0  0  0  0  0  0  0  0  0  0  0
   -2.3727   25.2353    5.0852 C   0  0  0  0  0  0  0  0  0  0  0  0
   -2.9563   23.6797    4.6451 Cl  0  0  0  0  0  0  0  0  0  0  0  0
   -3.2626   26.3096    5.1543 C   0  0  0  0  0  0  0  0  0  0  0  0
  2  1  1  1
  2  3  1  0
  3  4  1  0
  4  5  2  0
  5  6  1  0
  6  7  2  0
  7  8  1  0
  8  9  2  0
  2 10  1  0
 10 11  2  0
 11 12  1  0
 12 13  2  0
 13 14  1  0
 14 15  1  0
 14 16  2  0
  9  4  1  0
 16 10  1  0
M  CHG  1   3   1
M  END
>  <Energy>  (1055) 
34.775543432743063

>  <Energy_Delta>  (1055) 
4.7523803158027604

>  <std_smi>  (1055) 
CC(Nc1cnccn1)c1cccc(Cl)c1

>  <enum_smi>  (1055) 
C[C@@H]([NH2+]c1cnccn1)c1cccc(Cl)c1

>  <enum_code>  (1055) 
M

>  <parent_uuid>  (1055) 
6620cc01-fc2b-4cc4-81f0-045e40704b17

>  <o3da_score>  (1055) 
72.503131639793907

>  <o3da_score_rel>  (1055) 
0.28864550146424101

>  <o3da_align>  (1055) 
0.53325197574762195

>  <RMSD>  (1055) 
6.3247915055838027e-05

>  <CONVERGED>  (1055) 
0

>  <ENERGY>  (1055) 
34.775543426454895

$$$$
85d0fcce-c5b2-415e-8993-f2f147ae328b
     RDKit          3D

 16 17  0  0  0  0  0  0  0  0999 V2000
   -3.7845   28.5793    6.5786 C   0  0  0  0  0  0  0  0  0  0  0  0
   -4.2278   28.0895    5.1960 C   0  0  0  0  0  0  0  0  0  0  0  0
   -3.4896   28.7909    4.1457 N   0  0  0  0  0  0  0  0  0  0  0  0
   -3.7156   30.1261    3.8283 C   0  0  0  0  0  0  0  0  0  0  0  0
   -2.7872   30.7954    3.0242 C   0  0  0  0  0  0  0  0  0  0  0  0
   -3.0020   32.1153    2.6274 C   0  0  0  0  0  0  0  0  0  0  0  0
   -4.1687   32.7382    3.0292 C   0  0  0  0  0  0  0  0  0  0  0  0
   -5.1145   32.1338    3.7735 N   0  0  0  0  0  0  0  0  0  0  0  0
   -4.8709   30.8474    4.1352 C   0  0  0  0  0  0  0  0  0  0  0  0
   -4.0307   26.5956    4.9630 C   0  0  0  0  0  0  0  0  0  0  0  0
   -4.7953   25.9639    3.9633 C   0  0  0  0  0  0  0  0  0  0  0  0
   -4.6476   24.6019    3.6917 C   0  0  0  0  0  0  0  0  0  0  0  0
   -3.7240   23.8466    4.4098 C   0  0  0  0  0  0  0  0  0  0  0  0
   -2.9491   24.4601    5.3903 C   0  0  0  0  0  0  0  0  0  0  0  0
   -1.7968   23.5312    6.2701 Cl  0  0  0  0  0  0  0  0  0  0  0  0
   -3.0929   25.8223    5.6659 C   0  0  0  0  0  0  0  0  0  0  0  0
  1  2  1  0
  2  3  1  0
  3  4  1  0
  4  5  2  0
  5  6  1  0
  6  7  2  0
  7  8  1  0
  8  9  2  0
  2 10  1  0
 10 11  2  0
 11 12  1  0
 12 13  2  0
 13 14  1  0
 14 15  1  0
 14 16  2  0
  9  4  1  0
 16 10  1  0
M  END
>  <Energy>  (1056) 
51.684462461597661

>  <Energy_Delta>  (1056) 
0

>  <std_smi>  (1056) 
CC(Nc1cccnc1)c1cccc(Cl)c1

>  <enum_smi>  (1056) 
CC(Nc1cccnc1)c1cccc(Cl)c1

>  <enum_code>  (1056) 
B

>  <o3da_score>  (1056) 
66.6197478592224

>  <o3da_score_rel>  (1056) 
0.26522289580236957

>  <o3da_align>  (1056) 
0.46061832972959205

>  <RMSD>  (1056) 
0.34205428822516193

>  <CONVERGED>  (1056) 
0

>  <ENERGY>  (1056) 
51.759355391299934

$$$$
85d0fcce-c5b2-415e-8993-f2f147ae328b
     RDKit          3D

 16 17  0  0  0  0  0  0  0  0999 V2000
   -5.1247   28.4981    4.0757 C   0  0  0  0  0  0  0  0  0  0  0  0
   -3.7688   27.7917    4.1782 C   0  0  0  0  0  0  0  0  0  0  0  0
   -3.0368   27.9077    2.9169 N   0  0  0  0  0  0  0  0  0  0  0  0
   -2.4676   29.1001    2.4823 C   0  0  0  0  0  0  0  0  0  0  0  0
   -2.0406   29.1996    1.1540 C   0  0  0  0  0  0  0  0  0  0  0  0
   -1.4071   30.3520    0.6890 C   0  0  0  0  0  0  0  0  0  0  0  0
   -1.1895   31.3851    1.5812 C   0  0  0  0  0  0  0  0  0  0  0  0
   -1.5463   31.3327    2.8789 N   0  0  0  0  0  0  0  0  0  0  0  0
   -2.1557   30.1921    3.2942 C   0  0  0  0  0  0  0  0  0  0  0  0
   -3.8549   26.3066    4.5130 C   0  0  0  0  0  0  0  0  0  0  0  0
   -2.7278   25.6773    5.0756 C   0  0  0  0  0  0  0  0  0  0  0  0
   -2.7400   24.3161    5.3882 C   0  0  0  0  0  0  0  0  0  0  0  0
   -3.8785   23.5554    5.1349 C   0  0  0  0  0  0  0  0  0  0  0  0
   -4.9953   24.1596    4.5641 C   0  0  0  0  0  0  0  0  0  0  0  0
   -6.3994   23.2182    4.2375 Cl  0  0  0  0  0  0  0  0  0  0  0  0
   -4.9885   25.5209    4.2494 C   0  0  0  0  0  0  0  0  0  0  0  0
  1  2  1  0
  2  3  1  0
  3  4  1  0
  4  5  2  0
  5  6  1  0
  6  7  2  0
  7  8  1  0
  8  9  2  0
  2 10  1  0
 10 11  2  0
 11 12  1  0
 12 13  2  0
 13 14  1  0
 14 15  1  0
 14 16  2  0
  9  4  1  0
 16 10  1  0
M  END
>  <Energy>  (1057) 
51.68446246723115

>  <Energy_Delta>  (1057) 
5.6334883424824511e-09

>  <std_smi>  (1057) 
CC(Nc1cccnc1)c1cccc(Cl)c1

>  <enum_smi>  (1057) 
CC(Nc1cccnc1)c1cccc(Cl)c1

>  <enum_code>  (1057) 
B

>  <o3da_score>  (1057) 
78.552177769674842

>  <o3da_score_rel>  (1057) 
0.31272763300876982

>  <o3da_align>  (1057) 
0.56948693296090735

>  <RMSD>  (1057) 
0.34207311060734485

>  <CONVERGED>  (1057) 
0

>  <ENERGY>  (1057) 
51.759355391628418

$$$$
85d0fcce-c5b2-415e-8993-f2f147ae328b
     RDKit          3D

 16 17  0  0  0  0  0  0  0  0999 V2000
   -5.8195   26.0149    6.0659 C   0  0  0  0  0  0  0  0  0  0  0  0
   -4.6778   26.5220    5.1785 C   0  0  0  0  0  0  0  0  0  0  0  0
   -4.6203   25.7505    3.9367 N   0  0  0  0  0  0  0  0  0  0  0  0
   -4.1742   24.4343    3.8850 C   0  0  0  0  0  0  0  0  0  0  0  0
   -4.4105   23.6865    2.7268 C   0  0  0  0  0  0  0  0  0  0  0  0
   -3.9278   22.3836    2.6036 C   0  0  0  0  0  0  0  0  0  0  0  0
   -3.1888   21.8577    3.6466 C   0  0  0  0  0  0  0  0  0  0  0  0
   -2.9002   22.5414    4.7705 N   0  0  0  0  0  0  0  0  0  0  0  0
   -3.3824   23.8087    4.8496 C   0  0  0  0  0  0  0  0  0  0  0  0
   -4.7811   27.9928    4.7886 C   0  0  0  0  0  0  0  0  0  0  0  0
   -5.9746   28.7303    4.8498 C   0  0  0  0  0  0  0  0  0  0  0  0
   -6.0079   30.0742    4.4638 C   0  0  0  0  0  0  0  0  0  0  0  0
   -4.8517   30.7005    4.0022 C   0  0  0  0  0  0  0  0  0  0  0  0
   -3.6646   29.9791    3.9225 C   0  0  0  0  0  0  0  0  0  0  0  0
   -2.2369   30.7449    3.3431 Cl  0  0  0  0  0  0  0  0  0  0  0  0
   -3.6256   28.6391    4.3073 C   0  0  0  0  0  0  0  0  0  0  0  0
  1  2  1  0
  2  3  1  0
  3  4  1  0
  4  5  2  0
  5  6  1  0
  6  7  2  0
  7  8  1  0
  8  9  2  0
  2 10  1  0
 10 11  2  0
 11 12  1  0
 12 13  2  0
 13 14  1  0
 14 15  1  0
 14 16  2  0
  9  4  1  0
 16 10  1  0
M  END
>  <Energy>  (1058) 
51.723635778440411

>  <Energy_Delta>  (1058) 
0.039173316842749273

>  <std_smi>  (1058) 
CC(Nc1cccnc1)c1cccc(Cl)c1

>  <enum_smi>  (1058) 
CC(Nc1cccnc1)c1cccc(Cl)c1

>  <enum_code>  (1058) 
B

>  <o3da_score>  (1058) 
73.07667805846954

>  <o3da_score_rel>  (1058) 
0.29092887309091958

>  <o3da_align>  (1058) 
0.49737058324044836

>  <RMSD>  (1058) 
0.35233960200456055

>  <CONVERGED>  (1058) 
0

>  <ENERGY>  (1058) 
51.830104918836106

$$$$
85d0fcce-c5b2-415e-8993-f2f147ae328b
     RDKit          3D

 16 17  0  0  0  0  0  0  0  0999 V2000
   -3.0068   27.1709    5.4131 C   0  0  0  0  0  0  0  0  0  0  0  0
   -3.4628   28.5519    4.9305 C   0  0  0  0  0  0  0  0  0  0  0  0
   -4.8387   28.4874    4.4370 N   0  0  0  0  0  0  0  0  0  0  0  0
   -5.9364   28.3374    5.2775 C   0  0  0  0  0  0  0  0  0  0  0  0
   -7.1750   28.0072    4.7177 C   0  0  0  0  0  0  0  0  0  0  0  0
   -8.3172   27.9075    5.5122 C   0  0  0  0  0  0  0  0  0  0  0  0
   -8.1989   28.1669    6.8647 C   0  0  0  0  0  0  0  0  0  0  0  0
   -7.0410   28.5224    7.4537 N   0  0  0  0  0  0  0  0  0  0  0  0
   -5.9533   28.6150    6.6456 C   0  0  0  0  0  0  0  0  0  0  0  0
   -2.6127   29.1472    3.8129 C   0  0  0  0  0  0  0  0  0  0  0  0
   -1.7643   28.3856    2.9930 C   0  0  0  0  0  0  0  0  0  0  0  0
   -1.0204   28.9890    1.9739 C   0  0  0  0  0  0  0  0  0  0  0  0
   -1.1188   30.3613    1.7516 C   0  0  0  0  0  0  0  0  0  0  0  0
   -1.9659   31.1271    2.5465 C   0  0  0  0  0  0  0  0  0  0  0  0
   -2.0989   32.8200    2.2691 Cl  0  0  0  0  0  0  0  0  0  0  0  0
   -2.7089   30.5306    3.5650 C   0  0  0  0  0  0  0  0  0  0  0  0
  1  2  1  0
  2  3  1  0
  3  4  1  0
  4  5  2  0
  5  6  1  0
  6  7  2  0
  7  8  1  0
  8  9  2  0
  2 10  1  0
 10 11  2  0
 11 12  1  0
 12 13  2  0
 13 14  1  0
 14 15  1  0
 14 16  2  0
  9  4  1  0
 16 10  1  0
M  END
>  <Energy>  (1059) 
51.723635782365378

>  <Energy_Delta>  (1059) 
0.039173320767716291

>  <std_smi>  (1059) 
CC(Nc1cccnc1)c1cccc(Cl)c1

>  <enum_smi>  (1059) 
CC(Nc1cccnc1)c1cccc(Cl)c1

>  <enum_code>  (1059) 
B

>  <o3da_score>  (1059) 
68.4678714189277

>  <o3da_score_rel>  (1059) 
0.27258054421829297

>  <o3da_align>  (1059) 
0.41013956700014315

>  <RMSD>  (1059) 
0.35234922383412626

>  <CONVERGED>  (1059) 
0

>  <ENERGY>  (1059) 
51.830104918735962

$$$$
85d0fcce-c5b2-415e-8993-f2f147ae328b
     RDKit          3D

 16 17  0  0  0  0  0  0  0  0999 V2000
   -5.3819   28.1362    6.2479 C   0  0  0  0  0  0  0  0  0  0  0  0
   -4.6494   28.0443    4.9046 C   0  0  0  0  0  0  0  0  0  0  0  0
   -3.5618   29.0264    4.8995 N   0  0  0  0  0  0  0  0  0  0  0  0
   -2.9148   29.3968    3.7188 C   0  0  0  0  0  0  0  0  0  0  0  0
   -1.6883   30.0647    3.8044 C   0  0  0  0  0  0  0  0  0  0  0  0
   -1.0353   30.5139    2.6566 C   0  0  0  0  0  0  0  0  0  0  0  0
   -1.6440   30.3067    1.4330 C   0  0  0  0  0  0  0  0  0  0  0  0
   -2.8408   29.7054    1.2913 N   0  0  0  0  0  0  0  0  0  0  0  0
   -3.4455   29.2839    2.4326 C   0  0  0  0  0  0  0  0  0  0  0  0
   -4.1194   26.6395    4.6642 C   0  0  0  0  0  0  0  0  0  0  0  0
   -4.5794   25.8964    3.5637 C   0  0  0  0  0  0  0  0  0  0  0  0
   -4.1030   24.6058    3.3202 C   0  0  0  0  0  0  0  0  0  0  0  0
   -3.1597   24.0371    4.1737 C   0  0  0  0  0  0  0  0  0  0  0  0
   -2.6960   24.7624    5.2676 C   0  0  0  0  0  0  0  0  0  0  0  0
   -1.5308   24.0636    6.3242 Cl  0  0  0  0  0  0  0  0  0  0  0  0
   -3.1682   26.0518    5.5163 C   0  0  0  0  0  0  0  0  0  0  0  0
  1  2  1  0
  2  3  1  0
  3  4  1  0
  4  5  2  0
  5  6  1  0
  6  7  2  0
  7  8  1  0
  8  9  2  0
  2 10  1  0
 10 11  2  0
 11 12  1  0
 12 13  2  0
 13 14  1  0
 14 15  1  0
 14 16  2  0
  9  4  1  0
 16 10  1  0
M  END
>  <Energy>  (1060) 
51.741359935101109

>  <Energy_Delta>  (1060) 
0.056897473503447316

>  <std_smi>  (1060) 
CC(Nc1cccnc1)c1cccc(Cl)c1

>  <enum_smi>  (1060) 
CC(Nc1cccnc1)c1cccc(Cl)c1

>  <enum_code>  (1060) 
B

>  <o3da_score>  (1060) 
76.161964426135

>  <o3da_score_rel>  (1060) 
0.30321184639998966

>  <o3da_align>  (1060) 
0.72701951985993951

>  <RMSD>  (1060) 
5.9467157105149967e-05

>  <CONVERGED>  (1060) 
0

>  <ENERGY>  (1060) 
51.74135992378978

$$$$
85d0fcce-c5b2-415e-8993-f2f147ae328b
     RDKit          3D

 16 17  0  0  0  0  0  0  0  0999 V2000
   -5.9221   28.4227    5.2403 C   0  0  0  0  0  0  0  0  0  0  0  0
   -4.6622   28.0852    4.4352 C   0  0  0  0  0  0  0  0  0  0  0  0
   -4.8886   28.4616    3.0372 N   0  0  0  0  0  0  0  0  0  0  0  0
   -3.8352   28.5641    2.1264 C   0  0  0  0  0  0  0  0  0  0  0  0
   -4.1284   28.5929    0.7586 C   0  0  0  0  0  0  0  0  0  0  0  0
   -3.1174   28.7607   -0.1877 C   0  0  0  0  0  0  0  0  0  0  0  0
   -1.8205   28.9256    0.2613 C   0  0  0  0  0  0  0  0  0  0  0  0
   -1.4830   28.9456    1.5650 N   0  0  0  0  0  0  0  0  0  0  0  0
   -2.4959   28.7807    2.4554 C   0  0  0  0  0  0  0  0  0  0  0  0
   -4.3138   26.6100    4.5553 C   0  0  0  0  0  0  0  0  0  0  0  0
   -3.0905   26.2239    5.1292 C   0  0  0  0  0  0  0  0  0  0  0  0
   -2.7469   24.8746    5.2453 C   0  0  0  0  0  0  0  0  0  0  0  0
   -3.6215   23.8897    4.7905 C   0  0  0  0  0  0  0  0  0  0  0  0
   -4.8366   24.2587    4.2204 C   0  0  0  0  0  0  0  0  0  0  0  0
   -5.9196   23.0452    3.6573 Cl  0  0  0  0  0  0  0  0  0  0  0  0
   -5.1855   25.6046    4.1017 C   0  0  0  0  0  0  0  0  0  0  0  0
  1  2  1  0
  2  3  1  0
  3  4  1  0
  4  5  2  0
  5  6  1  0
  6  7  2  0
  7  8  1  0
  8  9  2  0
  2 10  1  0
 10 11  2  0
 11 12  1  0
 12 13  2  0
 13 14  1  0
 14 15  1  0
 14 16  2  0
  9  4  1  0
 16 10  1  0
M  END
>  <Energy>  (1061) 
51.741359947659312

>  <Energy_Delta>  (1061) 
0.056897486061650682

>  <std_smi>  (1061) 
CC(Nc1cccnc1)c1cccc(Cl)c1

>  <enum_smi>  (1061) 
CC(Nc1cccnc1)c1cccc(Cl)c1

>  <enum_code>  (1061) 
B

>  <o3da_score>  (1061) 
71.416684057339594

>  <o3da_score_rel>  (1061) 
0.28432019578213419

>  <o3da_align>  (1061) 
0.3157733657093611

>  <RMSD>  (1061) 
7.2406274048125987e-05

>  <CONVERGED>  (1061) 
0

>  <ENERGY>  (1061) 
51.741359923644332

$$$$
85d0fcce-c5b2-415e-8993-f2f147ae328b
     RDKit          3D

 16 17  0  0  0  0  0  0  0  0999 V2000
   -5.9269   28.3484    5.2621 C   0  0  0  0  0  0  0  0  0  0  0  0
   -4.6861   27.9991    4.4325 C   0  0  0  0  0  0  0  0  0  0  0  0
   -4.9291   28.3967    3.0433 N   0  0  0  0  0  0  0  0  0  0  0  0
   -3.8876   28.5128    2.1206 C   0  0  0  0  0  0  0  0  0  0  0  0
   -4.1999   28.5671    0.7576 C   0  0  0  0  0  0  0  0  0  0  0  0
   -3.2022   28.7506   -0.1998 C   0  0  0  0  0  0  0  0  0  0  0  0
   -1.8989   28.9053    0.2337 C   0  0  0  0  0  0  0  0  0  0  0  0
   -1.5435   28.9012    1.5326 N   0  0  0  0  0  0  0  0  0  0  0  0
   -2.5435   28.7213    2.4345 C   0  0  0  0  0  0  0  0  0  0  0  0
   -4.3619   26.5164    4.5270 C   0  0  0  0  0  0  0  0  0  0  0  0
   -5.2639   25.5295    4.0912 C   0  0  0  0  0  0  0  0  0  0  0  0
   -4.9437   24.1729    4.1866 C   0  0  0  0  0  0  0  0  0  0  0  0
   -3.7171   23.7810    4.7190 C   0  0  0  0  0  0  0  0  0  0  0  0
   -2.8149   24.7481    5.1535 C   0  0  0  0  0  0  0  0  0  0  0  0
   -1.3007   24.2666    5.8148 Cl  0  0  0  0  0  0  0  0  0  0  0  0
   -3.1291   26.1047    5.0611 C   0  0  0  0  0  0  0  0  0  0  0  0
  1  2  1  0
  2  3  1  0
  3  4  1  0
  4  5  2  0
  5  6  1  0
  6  7  2  0
  7  8  1  0
  8  9  2  0
  2 10  1  0
 10 11  2  0
 11 12  1  0
 12 13  2  0
 13 14  1  0
 14 15  1  0
 14 16  2  0
  9  4  1  0
 16 10  1  0
M  END
>  <Energy>  (1062) 
52.092402248602511

>  <Energy_Delta>  (1062) 
0.40793978700484956

>  <std_smi>  (1062) 
CC(Nc1cccnc1)c1cccc(Cl)c1

>  <enum_smi>  (1062) 
CC(Nc1cccnc1)c1cccc(Cl)c1

>  <enum_code>  (1062) 
B

>  <o3da_score>  (1062) 
71.6259534838143

>  <o3da_score_rel>  (1062) 
0.2851533277749152

>  <o3da_align>  (1062) 
0.30705703276162816

>  <RMSD>  (1062) 
7.5054532235609023e-05

>  <CONVERGED>  (1062) 
0

>  <ENERGY>  (1062) 
52.092402243619468

$$$$
85d0fcce-c5b2-415e-8993-f2f147ae328b
     RDKit          3D

 16 17  0  0  0  0  0  0  0  0999 V2000
   -5.5843   28.7536    4.9797 C   0  0  0  0  0  0  0  0  0  0  0  0
   -4.3019   28.0105    4.5907 C   0  0  0  0  0  0  0  0  0  0  0  0
   -3.1919   28.9522    4.4501 N   0  0  0  0  0  0  0  0  0  0  0  0
   -3.0852   29.8550    3.3976 C   0  0  0  0  0  0  0  0  0  0  0  0
   -3.7352   29.7130    2.1712 C   0  0  0  0  0  0  0  0  0  0  0  0
   -3.5214   30.6311    1.1403 C   0  0  0  0  0  0  0  0  0  0  0  0
   -2.6325   31.6690    1.3530 C   0  0  0  0  0  0  0  0  0  0  0  0
   -1.9504   31.8369    2.5009 N   0  0  0  0  0  0  0  0  0  0  0  0
   -2.1818   30.9217    3.4755 C   0  0  0  0  0  0  0  0  0  0  0  0
   -3.8614   26.9430    5.5871 C   0  0  0  0  0  0  0  0  0  0  0  0
   -4.2763   26.9156    6.9285 C   0  0  0  0  0  0  0  0  0  0  0  0
   -3.8243   25.9183    7.7986 C   0  0  0  0  0  0  0  0  0  0  0  0
   -2.9437   24.9379    7.3452 C   0  0  0  0  0  0  0  0  0  0  0  0
   -2.5119   24.9606    6.0227 C   0  0  0  0  0  0  0  0  0  0  0  0
   -1.4167   23.7584    5.4607 Cl  0  0  0  0  0  0  0  0  0  0  0  0
   -2.9602   25.9524    5.1507 C   0  0  0  0  0  0  0  0  0  0  0  0
  1  2  1  0
  2  3  1  0
  3  4  1  0
  4  5  2  0
  5  6  1  0
  6  7  2  0
  7  8  1  0
  8  9  2  0
  2 10  1  0
 10 11  2  0
 11 12  1  0
 12 13  2  0
 13 14  1  0
 14 15  1  0
 14 16  2  0
  9  4  1  0
 16 10  1  0
M  END
>  <Energy>  (1063) 
52.553586398328363

>  <Energy_Delta>  (1063) 
0.86912393673070198

>  <std_smi>  (1063) 
CC(Nc1cccnc1)c1cccc(Cl)c1

>  <enum_smi>  (1063) 
CC(Nc1cccnc1)c1cccc(Cl)c1

>  <enum_code>  (1063) 
B

>  <o3da_score>  (1063) 
58.750354591685877

>  <o3da_score_rel>  (1063) 
0.23389369781389691

>  <o3da_align>  (1063) 
0.62181932208113389

>  <RMSD>  (1063) 
0.33378424619736202

>  <CONVERGED>  (1063) 
0

>  <ENERGY>  (1063) 
52.59700397875153

$$$$
85d0fcce-c5b2-415e-8993-f2f147ae328b
     RDKit          3D

 16 17  0  0  0  0  0  0  0  0999 V2000
   -5.1111   28.6097    4.1493 C   0  0  0  0  0  0  0  0  0  0  0  0
   -3.7547   27.9026    4.2400 C   0  0  0  0  0  0  0  0  0  0  0  0
   -3.0123   28.0656    2.9904 N   0  0  0  0  0  0  0  0  0  0  0  0
   -2.4486   29.2719    2.5892 C   0  0  0  0  0  0  0  0  0  0  0  0
   -2.1433   30.3233    3.4542 C   0  0  0  0  0  0  0  0  0  0  0  0
   -1.5152   31.4774    2.9802 C   0  0  0  0  0  0  0  0  0  0  0  0
   -1.1798   31.5448    1.6402 C   0  0  0  0  0  0  0  0  0  0  0  0
   -1.4167   30.5491    0.7661 N   0  0  0  0  0  0  0  0  0  0  0  0
   -2.0234   29.4435    1.2664 C   0  0  0  0  0  0  0  0  0  0  0  0
   -3.8383   26.4057    4.5203 C   0  0  0  0  0  0  0  0  0  0  0  0
   -4.9863   25.6340    4.2777 C   0  0  0  0  0  0  0  0  0  0  0  0
   -4.9958   24.2604    4.5409 C   0  0  0  0  0  0  0  0  0  0  0  0
   -3.8560   23.6342    5.0419 C   0  0  0  0  0  0  0  0  0  0  0  0
   -2.7062   24.3827    5.2732 C   0  0  0  0  0  0  0  0  0  0  0  0
   -1.2933   23.6124    5.8821 Cl  0  0  0  0  0  0  0  0  0  0  0  0
   -2.6916   25.7529    5.0132 C   0  0  0  0  0  0  0  0  0  0  0  0
  1  2  1  0
  2  3  1  0
  3  4  1  0
  4  5  2  0
  5  6  1  0
  6  7  2  0
  7  8  1  0
  8  9  2  0
  2 10  1  0
 10 11  2  0
 11 12  1  0
 12 13  2  0
 13 14  1  0
 14 15  1  0
 14 16  2  0
  9  4  1  0
 16 10  1  0
M  END
>  <Energy>  (1064) 
52.553586428421625

>  <Energy_Delta>  (1064) 
0.8691239668239632

>  <std_smi>  (1064) 
CC(Nc1cccnc1)c1cccc(Cl)c1

>  <enum_smi>  (1064) 
CC(Nc1cccnc1)c1cccc(Cl)c1

>  <enum_code>  (1064) 
B

>  <o3da_score>  (1064) 
75.033082886881573

>  <o3da_score_rel>  (1064) 
0.29871760497038652

>  <o3da_align>  (1064) 
0.61096467842841484

>  <RMSD>  (1064) 
0.33380332259890139

>  <CONVERGED>  (1064) 
0

>  <ENERGY>  (1064) 
52.597003980231037

$$$$
85d0fcce-c5b2-415e-8993-f2f147ae328b
     RDKit          3D

 16 17  0  0  0  0  0  0  0  0999 V2000
   -2.9002   26.3694    5.2381 C   0  0  0  0  0  0  0  0  0  0  0  0
   -4.0443   26.8277    4.3274 C   0  0  0  0  0  0  0  0  0  0  0  0
   -3.5135   27.3444    3.0662 N   0  0  0  0  0  0  0  0  0  0  0  0
   -2.8386   28.5557    2.9603 C   0  0  0  0  0  0  0  0  0  0  0  0
   -2.9357   29.5938    3.8876 C   0  0  0  0  0  0  0  0  0  0  0  0
   -2.2771   30.8066    3.6718 C   0  0  0  0  0  0  0  0  0  0  0  0
   -1.5483   30.9654    2.5073 C   0  0  0  0  0  0  0  0  0  0  0  0
   -1.4480   30.0140    1.5606 N   0  0  0  0  0  0  0  0  0  0  0  0
   -2.1048   28.8523    1.8055 C   0  0  0  0  0  0  0  0  0  0  0  0
   -5.0524   25.7376    3.9779 C   0  0  0  0  0  0  0  0  0  0  0  0
   -6.3192   26.1239    3.4986 C   0  0  0  0  0  0  0  0  0  0  0  0
   -7.2812   25.1741    3.1477 C   0  0  0  0  0  0  0  0  0  0  0  0
   -6.9913   23.8171    3.2626 C   0  0  0  0  0  0  0  0  0  0  0  0
   -5.7386   23.4189    3.7213 C   0  0  0  0  0  0  0  0  0  0  0  0
   -5.3739   21.7413    3.8531 Cl  0  0  0  0  0  0  0  0  0  0  0  0
   -4.7724   24.3650    4.0731 C   0  0  0  0  0  0  0  0  0  0  0  0
  1  2  1  0
  2  3  1  0
  3  4  1  0
  4  5  2  0
  5  6  1  0
  6  7  2  0
  7  8  1  0
  8  9  2  0
  2 10  1  0
 10 11  2  0
 11 12  1  0
 12 13  2  0
 13 14  1  0
 14 15  1  0
 14 16  2  0
  9  4  1  0
 16 10  1  0
M  END
>  <Energy>  (1065) 
52.574454470595043

>  <Energy_Delta>  (1065) 
0.88999200899738184

>  <std_smi>  (1065) 
CC(Nc1cccnc1)c1cccc(Cl)c1

>  <enum_smi>  (1065) 
CC(Nc1cccnc1)c1cccc(Cl)c1

>  <enum_code>  (1065) 
B

>  <o3da_score>  (1065) 
73.613621048391252

>  <o3da_score_rel>  (1065) 
0.29306652114940146

>  <o3da_align>  (1065) 
0.37525583457392808

>  <RMSD>  (1065) 
7.7798287599799488e-05

>  <CONVERGED>  (1065) 
0

>  <ENERGY>  (1065) 
52.574454455010333

$$$$
85d0fcce-c5b2-415e-8993-f2f147ae328b
     RDKit          3D

 16 17  0  0  0  0  0  0  0  0999 V2000
   -5.4646   28.4745    4.0869 C   0  0  0  0  0  0  0  0  0  0  0  0
   -4.0786   27.8951    4.3892 C   0  0  0  0  0  0  0  0  0  0  0  0
   -3.1601   28.1737    3.2854 N   0  0  0  0  0  0  0  0  0  0  0  0
   -2.6576   29.4409    3.0107 C   0  0  0  0  0  0  0  0  0  0  0  0
   -2.6087   30.4850    3.9351 C   0  0  0  0  0  0  0  0  0  0  0  0
   -2.0248   31.7085    3.5987 C   0  0  0  0  0  0  0  0  0  0  0  0
   -1.4732   31.8539    2.3389 C   0  0  0  0  0  0  0  0  0  0  0  0
   -1.4585   30.8719    1.4188 N   0  0  0  0  0  0  0  0  0  0  0  0
   -2.0318   29.6979    1.7850 C   0  0  0  0  0  0  0  0  0  0  0  0
   -4.0580   26.3877    4.6217 C   0  0  0  0  0  0  0  0  0  0  0  0
   -2.9488   25.8260    5.2835 C   0  0  0  0  0  0  0  0  0  0  0  0
   -2.8631   24.4512    5.5141 C   0  0  0  0  0  0  0  0  0  0  0  0
   -3.8836   23.6094    5.0796 C   0  0  0  0  0  0  0  0  0  0  0  0
   -4.9800   24.1475    4.4114 C   0  0  0  0  0  0  0  0  0  0  0  0
   -6.2376   23.1071    3.8630 Cl  0  0  0  0  0  0  0  0  0  0  0  0
   -5.0703   25.5222    4.1775 C   0  0  0  0  0  0  0  0  0  0  0  0
  1  2  1  0
  2  3  1  0
  3  4  1  0
  4  5  2  0
  5  6  1  0
  6  7  2  0
  7  8  1  0
  8  9  2  0
  2 10  1  0
 10 11  2  0
 11 12  1  0
 12 13  2  0
 13 14  1  0
 14 15  1  0
 14 16  2  0
  9  4  1  0
 16 10  1  0
M  END
>  <Energy>  (1066) 
52.574454477095649

>  <Energy_Delta>  (1066) 
0.88999201549798812

>  <std_smi>  (1066) 
CC(Nc1cccnc1)c1cccc(Cl)c1

>  <enum_smi>  (1066) 
CC(Nc1cccnc1)c1cccc(Cl)c1

>  <enum_code>  (1066) 
B

>  <o3da_score>  (1066) 
80.570750143377964

>  <o3da_score_rel>  (1066) 
0.32076386291872877

>  <o3da_align>  (1066) 
0.56448552408052444

>  <RMSD>  (1066) 
7.1593887766462167e-05

>  <CONVERGED>  (1066) 
0

>  <ENERGY>  (1066) 
52.57445445573989

$$$$
85d0fcce-c5b2-415e-8993-f2f147ae328b
     RDKit          3D

 16 17  0  0  0  0  0  0  0  0999 V2000
   -5.3173   28.1806    6.5986 C   0  0  0  0  0  0  0  0  0  0  0  0
   -4.7748   28.1363    5.1657 C   0  0  0  0  0  0  0  0  0  0  0  0
   -3.7118   29.1357    5.0395 N   0  0  0  0  0  0  0  0  0  0  0  0
   -3.2021   29.5325    3.8028 C   0  0  0  0  0  0  0  0  0  0  0  0
   -3.8787   29.3962    2.5905 C   0  0  0  0  0  0  0  0  0  0  0  0
   -3.3238   29.8852    1.4055 C   0  0  0  0  0  0  0  0  0  0  0  0
   -2.1032   30.5329    1.4644 C   0  0  0  0  0  0  0  0  0  0  0  0
   -1.4228   30.7293    2.6088 N   0  0  0  0  0  0  0  0  0  0  0  0
   -1.9953   30.2400    3.7374 C   0  0  0  0  0  0  0  0  0  0  0  0
   -4.2731   26.7424    4.8224 C   0  0  0  0  0  0  0  0  0  0  0  0
   -4.9321   25.9848    3.8389 C   0  0  0  0  0  0  0  0  0  0  0  0
   -4.4921   24.7008    3.5082 C   0  0  0  0  0  0  0  0  0  0  0  0
   -3.3874   24.1530    4.1574 C   0  0  0  0  0  0  0  0  0  0  0  0
   -2.7276   24.8917    5.1357 C   0  0  0  0  0  0  0  0  0  0  0  0
   -1.3659   24.2159    5.9426 Cl  0  0  0  0  0  0  0  0  0  0  0  0
   -3.1626   26.1745    5.4707 C   0  0  0  0  0  0  0  0  0  0  0  0
  1  2  1  0
  2  3  1  0
  3  4  1  0
  4  5  2  0
  5  6  1  0
  6  7  2  0
  7  8  1  0
  8  9  2  0
  2 10  1  0
 10 11  2  0
 11 12  1  0
 12 13  2  0
 13 14  1  0
 14 15  1  0
 14 16  2  0
  9  4  1  0
 16 10  1  0
M  END
>  <Energy>  (1067) 
52.853111884274831

>  <Energy_Delta>  (1067) 
1.16864942267717

>  <std_smi>  (1067) 
CC(Nc1cccnc1)c1cccc(Cl)c1

>  <enum_smi>  (1067) 
CC(Nc1cccnc1)c1cccc(Cl)c1

>  <enum_code>  (1067) 
B

>  <o3da_score>  (1067) 
80.199380951354499

>  <o3da_score_rel>  (1067) 
0.31928538820687025

>  <o3da_align>  (1067) 
0.50909752544332643

>  <RMSD>  (1067) 
6.2141779962358114e-05

>  <CONVERGED>  (1067) 
0

>  <ENERGY>  (1067) 
52.853111877914216

$$$$
85d0fcce-c5b2-415e-8993-f2f147ae328b
     RDKit          3D

 16 17  0  0  0  0  0  0  0  0999 V2000
   -2.4572   27.9023    5.8481 C   0  0  0  0  0  0  0  0  0  0  0  0
   -3.4332   28.7965    5.0754 C   0  0  0  0  0  0  0  0  0  0  0  0
   -4.6380   28.0199    4.7754 N   0  0  0  0  0  0  0  0  0  0  0  0
   -5.8167   28.6141    4.3234 C   0  0  0  0  0  0  0  0  0  0  0  0
   -6.1459   29.9565    4.5119 C   0  0  0  0  0  0  0  0  0  0  0  0
   -7.3804   30.4541    4.0881 C   0  0  0  0  0  0  0  0  0  0  0  0
   -8.2805   29.5813    3.5042 C   0  0  0  0  0  0  0  0  0  0  0  0
   -8.0353   28.2693    3.3318 N   0  0  0  0  0  0  0  0  0  0  0  0
   -6.8257   27.8252    3.7568 C   0  0  0  0  0  0  0  0  0  0  0  0
   -2.7852   29.3321    3.8081 C   0  0  0  0  0  0  0  0  0  0  0  0
   -2.5338   30.7089    3.6797 C   0  0  0  0  0  0  0  0  0  0  0  0
   -1.9369   31.2245    2.5266 C   0  0  0  0  0  0  0  0  0  0  0  0
   -1.5795   30.3710    1.4846 C   0  0  0  0  0  0  0  0  0  0  0  0
   -1.8202   29.0047    1.6005 C   0  0  0  0  0  0  0  0  0  0  0  0
   -1.3756   27.9475    0.3172 Cl  0  0  0  0  0  0  0  0  0  0  0  0
   -2.4157   28.4838    2.7499 C   0  0  0  0  0  0  0  0  0  0  0  0
  1  2  1  0
  2  3  1  0
  3  4  1  0
  4  5  2  0
  5  6  1  0
  6  7  2  0
  7  8  1  0
  8  9  2  0
  2 10  1  0
 10 11  2  0
 11 12  1  0
 12 13  2  0
 13 14  1  0
 14 15  1  0
 14 16  2  0
  9  4  1  0
 16 10  1  0
M  END
>  <Energy>  (1068) 
52.853111891048712

>  <Energy_Delta>  (1068) 
1.168649429451051

>  <std_smi>  (1068) 
CC(Nc1cccnc1)c1cccc(Cl)c1

>  <enum_smi>  (1068) 
CC(Nc1cccnc1)c1cccc(Cl)c1

>  <enum_code>  (1068) 
B

>  <o3da_score>  (1068) 
67.654704707206051

>  <o3da_score_rel>  (1068) 
0.26934320938915718

>  <o3da_align>  (1068) 
0.33828801602944369

>  <RMSD>  (1068) 
7.2453362460244862e-05

>  <CONVERGED>  (1068) 
0

>  <ENERGY>  (1068) 
52.853111877507104

$$$$
85d0fcce-c5b2-415e-8993-f2f147ae328b
     RDKit          3D

 16 17  0  0  0  0  0  0  0  0999 V2000
   -5.4623   28.4768    6.4454 C   0  0  0  0  0  0  0  0  0  0  0  0
   -4.7783   28.2106    5.0996 C   0  0  0  0  0  0  0  0  0  0  0  0
   -3.6693   29.1552    4.9465 N   0  0  0  0  0  0  0  0  0  0  0  0
   -3.0301   29.3588    3.7223 C   0  0  0  0  0  0  0  0  0  0  0  0
   -3.6040   29.0933    2.4788 C   0  0  0  0  0  0  0  0  0  0  0  0
   -2.9181   29.3913    1.2990 C   0  0  0  0  0  0  0  0  0  0  0  0
   -1.6712   29.9827    1.3898 C   0  0  0  0  0  0  0  0  0  0  0  0
   -1.0845   30.3001    2.5588 N   0  0  0  0  0  0  0  0  0  0  0  0
   -1.7831   29.9952    3.6812 C   0  0  0  0  0  0  0  0  0  0  0  0
   -4.2940   26.7716    5.0111 C   0  0  0  0  0  0  0  0  0  0  0  0
   -3.3118   26.2627    5.8791 C   0  0  0  0  0  0  0  0  0  0  0  0
   -2.8816   24.9374    5.7763 C   0  0  0  0  0  0  0  0  0  0  0  0
   -3.4265   24.0997    4.8051 C   0  0  0  0  0  0  0  0  0  0  0  0
   -4.4005   24.5911    3.9404 C   0  0  0  0  0  0  0  0  0  0  0  0
   -5.0763   23.5597    2.7398 Cl  0  0  0  0  0  0  0  0  0  0  0  0
   -4.8352   25.9134    4.0390 C   0  0  0  0  0  0  0  0  0  0  0  0
  1  2  1  0
  2  3  1  0
  3  4  1  0
  4  5  2  0
  5  6  1  0
  6  7  2  0
  7  8  1  0
  8  9  2  0
  2 10  1  0
 10 11  2  0
 11 12  1  0
 12 13  2  0
 13 14  1  0
 14 15  1  0
 14 16  2  0
  9  4  1  0
 16 10  1  0
M  END
>  <Energy>  (1069) 
53.105683231953982

>  <Energy_Delta>  (1069) 
1.4212207703563209

>  <std_smi>  (1069) 
CC(Nc1cccnc1)c1cccc(Cl)c1

>  <enum_smi>  (1069) 
CC(Nc1cccnc1)c1cccc(Cl)c1

>  <enum_code>  (1069) 
B

>  <o3da_score>  (1069) 
97.474632169675402

>  <o3da_score_rel>  (1069) 
0.38806067332981165

>  <o3da_align>  (1069) 
0.34514550364195312

>  <RMSD>  (1069) 
0.47183265666951163

>  <CONVERGED>  (1069) 
0

>  <ENERGY>  (1069) 
52.778610821339086

$$$$
85d0fcce-c5b2-415e-8993-f2f147ae328b
     RDKit          3D

 16 17  0  0  0  0  0  0  0  0999 V2000
   -5.8976   28.6332    4.4499 C   0  0  0  0  0  0  0  0  0  0  0  0
   -4.6591   28.1176    5.1912 C   0  0  0  0  0  0  0  0  0  0  0  0
   -3.5367   29.0567    5.0357 N   0  0  0  0  0  0  0  0  0  0  0  0
   -2.9466   29.3935    3.8196 C   0  0  0  0  0  0  0  0  0  0  0  0
   -2.1015   30.5094    3.7755 C   0  0  0  0  0  0  0  0  0  0  0  0
   -1.4342   30.8625    2.6025 C   0  0  0  0  0  0  0  0  0  0  0  0
   -1.6089   30.0673    1.4865 C   0  0  0  0  0  0  0  0  0  0  0  0
   -2.3787   28.9632    1.4773 N   0  0  0  0  0  0  0  0  0  0  0  0
   -3.0054   28.6476    2.6420 C   0  0  0  0  0  0  0  0  0  0  0  0
   -4.2495   26.6702    4.9520 C   0  0  0  0  0  0  0  0  0  0  0  0
   -3.0439   26.1912    5.5011 C   0  0  0  0  0  0  0  0  0  0  0  0
   -2.6426   24.8644    5.3280 C   0  0  0  0  0  0  0  0  0  0  0  0
   -3.4467   23.9833    4.6107 C   0  0  0  0  0  0  0  0  0  0  0  0
   -4.6482   24.4349    4.0730 C   0  0  0  0  0  0  0  0  0  0  0  0
   -5.6504   23.3458    3.1933 Cl  0  0  0  0  0  0  0  0  0  0  0  0
   -5.0528   25.7619    4.2423 C   0  0  0  0  0  0  0  0  0  0  0  0
  1  2  1  0
  2  3  1  0
  3  4  1  0
  4  5  2  0
  5  6  1  0
  6  7  2  0
  7  8  1  0
  8  9  2  0
  2 10  1  0
 10 11  2  0
 11 12  1  0
 12 13  2  0
 13 14  1  0
 14 15  1  0
 14 16  2  0
  9  4  1  0
 16 10  1  0
M  END
>  <Energy>  (1070) 
55.58616810455387

>  <Energy_Delta>  (1070) 
3.9017056429562089

>  <std_smi>  (1070) 
CC(Nc1cccnc1)c1cccc(Cl)c1

>  <enum_smi>  (1070) 
CC(Nc1cccnc1)c1cccc(Cl)c1

>  <enum_code>  (1070) 
B

>  <o3da_score>  (1070) 
100.96272595929169

>  <o3da_score_rel>  (1070) 
0.40194728151192627

>  <o3da_align>  (1070) 
0.38769502796684852

>  <RMSD>  (1070) 
6.4071194957561342e-05

>  <CONVERGED>  (1070) 
0

>  <ENERGY>  (1070) 
55.586168094680382

$$$$
85d0fcce-c5b2-415e-8993-f2f147ae328b
     RDKit          3D

 16 17  0  0  0  0  0  0  0  0999 V2000
   -2.8571   29.1934    3.7128 C   0  0  0  0  0  0  0  0  0  0  0  0
   -3.7528   29.0831    4.9516 C   0  0  0  0  0  0  0  0  0  0  0  0
   -4.6434   27.9177    4.8428 N   0  0  0  0  0  0  0  0  0  0  0  0
   -4.2276   26.5923    4.7486 C   0  0  0  0  0  0  0  0  0  0  0  0
   -2.9821   26.1157    5.1546 C   0  0  0  0  0  0  0  0  0  0  0  0
   -2.6797   24.7533    5.0885 C   0  0  0  0  0  0  0  0  0  0  0  0
   -3.6511   23.8811    4.6335 C   0  0  0  0  0  0  0  0  0  0  0  0
   -4.8821   24.2747    4.2597 N   0  0  0  0  0  0  0  0  0  0  0  0
   -5.1369   25.6048    4.3462 C   0  0  0  0  0  0  0  0  0  0  0  0
   -3.0812   29.1838    6.3153 C   0  0  0  0  0  0  0  0  0  0  0  0
   -1.7341   29.5516    6.4737 C   0  0  0  0  0  0  0  0  0  0  0  0
   -1.1615   29.6597    7.7452 C   0  0  0  0  0  0  0  0  0  0  0  0
   -1.9276   29.4117    8.8821 C   0  0  0  0  0  0  0  0  0  0  0  0
   -3.2663   29.0592    8.7444 C   0  0  0  0  0  0  0  0  0  0  0  0
   -4.2187   28.7602   10.1460 Cl  0  0  0  0  0  0  0  0  0  0  0  0
   -3.8415   28.9511    7.4783 C   0  0  0  0  0  0  0  0  0  0  0  0
  1  2  1  0
  2  3  1  0
  3  4  1  0
  4  5  2  0
  5  6  1  0
  6  7  2  0
  7  8  1  0
  8  9  2  0
  2 10  1  0
 10 11  2  0
 11 12  1  0
 12 13  2  0
 13 14  1  0
 14 15  1  0
 14 16  2  0
  9  4  1  0
 16 10  1  0
M  END
>  <Energy>  (1071) 
56.411234481330958

>  <Energy_Delta>  (1071) 
4.7267720197332963

>  <std_smi>  (1071) 
CC(Nc1cccnc1)c1cccc(Cl)c1

>  <enum_smi>  (1071) 
CC(Nc1cccnc1)c1cccc(Cl)c1

>  <enum_code>  (1071) 
B

>  <o3da_score>  (1071) 
69.683919332213634

>  <o3da_score_rel>  (1071) 
0.27742180764783442

>  <o3da_align>  (1071) 
0.17982474016788161

>  <RMSD>  (1071) 
7.3359347306448534e-05

>  <CONVERGED>  (1071) 
0

>  <ENERGY>  (1071) 
56.411234398138618

$$$$
85d0fcce-c5b2-415e-8993-f2f147ae328b
     RDKit          3D

 16 17  0  0  0  0  0  0  0  0999 V2000
   -6.0198   28.6099    4.6458 C   0  0  0  0  0  0  0  0  0  0  0  0
   -4.7175   28.1064    5.2780 C   0  0  0  0  0  0  0  0  0  0  0  0
   -3.6279   29.0684    5.0514 N   0  0  0  0  0  0  0  0  0  0  0  0
   -3.1360   29.4490    3.8057 C   0  0  0  0  0  0  0  0  0  0  0  0
   -3.2827   28.7140    2.6304 C   0  0  0  0  0  0  0  0  0  0  0  0
   -2.6908   29.1413    1.4391 C   0  0  0  0  0  0  0  0  0  0  0  0
   -1.9332   30.2976    1.4541 C   0  0  0  0  0  0  0  0  0  0  0  0
   -1.7249   31.0311    2.5626 N   0  0  0  0  0  0  0  0  0  0  0  0
   -2.3129   30.5783    3.6987 C   0  0  0  0  0  0  0  0  0  0  0  0
   -4.3034   26.6696    4.9859 C   0  0  0  0  0  0  0  0  0  0  0  0
   -3.0519   26.2040    5.4347 C   0  0  0  0  0  0  0  0  0  0  0  0
   -2.6428   24.8873    5.2106 C   0  0  0  0  0  0  0  0  0  0  0  0
   -3.4836   24.0031    4.5408 C   0  0  0  0  0  0  0  0  0  0  0  0
   -4.7293   24.4415    4.1018 C   0  0  0  0  0  0  0  0  0  0  0  0
   -5.7745   23.3499    3.2768 Cl  0  0  0  0  0  0  0  0  0  0  0  0
   -5.1427   25.7580    4.3237 C   0  0  0  0  0  0  0  0  0  0  0  0
  1  2  1  0
  2  3  1  0
  3  4  1  0
  4  5  2  0
  5  6  1  0
  6  7  2  0
  7  8  1  0
  8  9  2  0
  2 10  1  0
 10 11  2  0
 11 12  1  0
 12 13  2  0
 13 14  1  0
 14 15  1  0
 14 16  2  0
  9  4  1  0
 16 10  1  0
M  END
>  <Energy>  (1072) 
57.160451981169281

>  <Energy_Delta>  (1072) 
5.4759895195716197

>  <std_smi>  (1072) 
CC(Nc1cccnc1)c1cccc(Cl)c1

>  <enum_smi>  (1072) 
CC(Nc1cccnc1)c1cccc(Cl)c1

>  <enum_code>  (1072) 
B

>  <o3da_score>  (1072) 
88.668976338020911

>  <o3da_score_rel>  (1072) 
0.35300407803849332

>  <o3da_align>  (1072) 
0.44092490485039848

>  <RMSD>  (1072) 
0.22141838431655109

>  <CONVERGED>  (1072) 
0

>  <ENERGY>  (1072) 
56.363561196512698

$$$$
72c4a8ce-9f33-46c2-b454-e94ecb6f2d78
     RDKit          3D

 16 17  0  0  0  0  0  0  0  0999 V2000
   -5.2084   29.8325    4.8262 C   0  0  0  0  0  0  0  0  0  0  0  0
   -3.8912   29.0500    4.8023 C   0  0  2  0  0  0  0  0  0  0  0  0
   -3.0294   29.5351    3.7243 N   0  0  0  0  0  0  0  0  0  0  0  0
   -2.3843   30.7665    3.7709 C   0  0  0  0  0  0  0  0  0  0  0  0
   -1.8193   31.2775    2.5978 C   0  0  0  0  0  0  0  0  0  0  0  0
   -1.1082   32.4775    2.6081 C   0  0  0  0  0  0  0  0  0  0  0  0
   -0.9549   33.1375    3.8128 C   0  0  0  0  0  0  0  0  0  0  0  0
   -1.4456   32.6768    4.9794 N   0  0  0  0  0  0  0  0  0  0  0  0
   -2.1272   31.5029    4.9287 C   0  0  0  0  0  0  0  0  0  0  0  0
   -4.0541   27.5467    4.6055 C   0  0  0  0  0  0  0  0  0  0  0  0
   -3.0098   26.6971    5.0186 C   0  0  0  0  0  0  0  0  0  0  0  0
   -3.0933   25.3132    4.8495 C   0  0  0  0  0  0  0  0  0  0  0  0
   -4.2207   24.7528    4.2546 C   0  0  0  0  0  0  0  0  0  0  0  0
   -5.2546   25.5810    3.8262 C   0  0  0  0  0  0  0  0  0  0  0  0
   -6.6436   24.8916    3.0780 Cl  0  0  0  0  0  0  0  0  0  0  0  0
   -5.1762   26.9660    3.9929 C   0  0  0  0  0  0  0  0  0  0  0  0
  2  1  1  6
  2  3  1  0
  3  4  1  0
  4  5  2  0
  5  6  1  0
  6  7  2  0
  7  8  1  0
  8  9  2  0
  2 10  1  0
 10 11  2  0
 11 12  1  0
 12 13  2  0
 13 14  1  0
 14 15  1  0
 14 16  2  0
  9  4  1  0
 16 10  1  0
M  END
>  <Energy>  (1073) 
51.684462460792751

>  <Energy_Delta>  (1073) 
0

>  <std_smi>  (1073) 
CC(Nc1cccnc1)c1cccc(Cl)c1

>  <enum_smi>  (1073) 
C[C@H](Nc1cccnc1)c1cccc(Cl)c1

>  <enum_code>  (1073) 
C

>  <parent_uuid>  (1073) 
85d0fcce-c5b2-415e-8993-f2f147ae328b

>  <o3da_score>  (1073) 
69.862142707017099

>  <o3da_score_rel>  (1073) 
0.27813134079804885

>  <o3da_align>  (1073) 
0.54282106503746208

>  <RMSD>  (1073) 
0.34204920897498781

>  <CONVERGED>  (1073) 
0

>  <ENERGY>  (1073) 
51.759355391147821

$$$$
72c4a8ce-9f33-46c2-b454-e94ecb6f2d78
     RDKit          3D

 16 17  0  0  0  0  0  0  0  0999 V2000
   -3.0084   27.1747    5.4338 C   0  0  0  0  0  0  0  0  0  0  0  0
   -3.4662   28.5509    4.9395 C   0  0  2  0  0  0  0  0  0  0  0  0
   -4.8391   28.4785    4.4388 N   0  0  0  0  0  0  0  0  0  0  0  0
   -5.9411   28.3303    5.2741 C   0  0  0  0  0  0  0  0  0  0  0  0
   -7.1754   27.9923    4.7096 C   0  0  0  0  0  0  0  0  0  0  0  0
   -8.3217   27.8940    5.4984 C   0  0  0  0  0  0  0  0  0  0  0  0
   -8.2118   28.1627    6.8498 C   0  0  0  0  0  0  0  0  0  0  0  0
   -7.0584   28.5261    7.4429 N   0  0  0  0  0  0  0  0  0  0  0  0
   -5.9665   28.6169    6.6402 C   0  0  0  0  0  0  0  0  0  0  0  0
   -2.6119   29.1417    3.8227 C   0  0  0  0  0  0  0  0  0  0  0  0
   -1.7564   28.3775    3.0126 C   0  0  0  0  0  0  0  0  0  0  0  0
   -1.0088   28.9766    1.9936 C   0  0  0  0  0  0  0  0  0  0  0  0
   -1.1106   30.3470    1.7617 C   0  0  0  0  0  0  0  0  0  0  0  0
   -1.9646   31.1152    2.5468 C   0  0  0  0  0  0  0  0  0  0  0  0
   -2.1018   32.8058    2.2573 Cl  0  0  0  0  0  0  0  0  0  0  0  0
   -2.7113   30.5230    3.5650 C   0  0  0  0  0  0  0  0  0  0  0  0
  2  1  1  6
  2  3  1  0
  3  4  1  0
  4  5  2  0
  5  6  1  0
  6  7  2  0
  7  8  1  0
  8  9  2  0
  2 10  1  0
 10 11  2  0
 11 12  1  0
 12 13  2  0
 13 14  1  0
 14 15  1  0
 14 16  2  0
  9  4  1  0
 16 10  1  0
M  END
>  <Energy>  (1074) 
51.723635774899073

>  <Energy_Delta>  (1074) 
0.0391733141063213

>  <std_smi>  (1074) 
CC(Nc1cccnc1)c1cccc(Cl)c1

>  <enum_smi>  (1074) 
C[C@H](Nc1cccnc1)c1cccc(Cl)c1

>  <enum_code>  (1074) 
C

>  <parent_uuid>  (1074) 
85d0fcce-c5b2-415e-8993-f2f147ae328b

>  <o3da_score>  (1074) 
68.363708938022569

>  <o3da_score_rel>  (1074) 
0.27216585824743045

>  <o3da_align>  (1074) 
0.41581275798439454

>  <RMSD>  (1074) 
0.35234387735922312

>  <CONVERGED>  (1074) 
0

>  <ENERGY>  (1074) 
51.830104918737071

$$$$
72c4a8ce-9f33-46c2-b454-e94ecb6f2d78
     RDKit          3D

 16 17  0  0  0  0  0  0  0  0999 V2000
   -5.9221   28.4227    5.2403 C   0  0  0  0  0  0  0  0  0  0  0  0
   -4.6622   28.0852    4.4352 C   0  0  2  0  0  0  0  0  0  0  0  0
   -4.8886   28.4616    3.0371 N   0  0  0  0  0  0  0  0  0  0  0  0
   -3.8351   28.5640    2.1263 C   0  0  0  0  0  0  0  0  0  0  0  0
   -4.1283   28.5928    0.7586 C   0  0  0  0  0  0  0  0  0  0  0  0
   -3.1173   28.7607   -0.1877 C   0  0  0  0  0  0  0  0  0  0  0  0
   -1.8205   28.9256    0.2614 C   0  0  0  0  0  0  0  0  0  0  0  0
   -1.4830   28.9456    1.5650 N   0  0  0  0  0  0  0  0  0  0  0  0
   -2.4959   28.7807    2.4554 C   0  0  0  0  0  0  0  0  0  0  0  0
   -4.3138   26.6099    4.5553 C   0  0  0  0  0  0  0  0  0  0  0  0
   -3.0905   26.2238    5.1292 C   0  0  0  0  0  0  0  0  0  0  0  0
   -2.7469   24.8746    5.2454 C   0  0  0  0  0  0  0  0  0  0  0  0
   -3.6215   23.8897    4.7906 C   0  0  0  0  0  0  0  0  0  0  0  0
   -4.8366   24.2586    4.2204 C   0  0  0  0  0  0  0  0  0  0  0  0
   -5.9196   23.0452    3.6573 Cl  0  0  0  0  0  0  0  0  0  0  0  0
   -5.1855   25.6046    4.1017 C   0  0  0  0  0  0  0  0  0  0  0  0
  2  1  1  1
  2  3  1  0
  3  4  1  0
  4  5  2  0
  5  6  1  0
  6  7  2  0
  7  8  1  0
  8  9  2  0
  2 10  1  0
 10 11  2  0
 11 12  1  0
 12 13  2  0
 13 14  1  0
 14 15  1  0
 14 16  2  0
  9  4  1  0
 16 10  1  0
M  END
>  <Energy>  (1075) 
51.741359953033843

>  <Energy_Delta>  (1075) 
0.056897492241091641

>  <std_smi>  (1075) 
CC(Nc1cccnc1)c1cccc(Cl)c1

>  <enum_smi>  (1075) 
C[C@H](Nc1cccnc1)c1cccc(Cl)c1

>  <enum_code>  (1075) 
C

>  <parent_uuid>  (1075) 
85d0fcce-c5b2-415e-8993-f2f147ae328b

>  <o3da_score>  (1075) 
71.416916955671368

>  <o3da_score_rel>  (1075) 
0.28432112298423218

>  <o3da_align>  (1075) 
0.31576060089294877

>  <RMSD>  (1075) 
6.3650170062989694e-05

>  <CONVERGED>  (1075) 
0

>  <ENERGY>  (1075) 
51.741359923563124

$$$$
72c4a8ce-9f33-46c2-b454-e94ecb6f2d78
     RDKit          3D

 16 17  0  0  0  0  0  0  0  0999 V2000
   -6.0583   28.2439    5.5391 C   0  0  0  0  0  0  0  0  0  0  0  0
   -4.6781   28.1269    4.8825 C   0  0  2  0  0  0  0  0  0  0  0  0
   -4.7057   28.8534    3.6104 N   0  0  0  0  0  0  0  0  0  0  0  0
   -3.5318   29.2078    2.9424 C   0  0  0  0  0  0  0  0  0  0  0  0
   -3.6128   29.5945    1.6000 C   0  0  0  0  0  0  0  0  0  0  0  0
   -2.4801   30.0222    0.9074 C   0  0  0  0  0  0  0  0  0  0  0  0
   -1.2791   30.0809    1.5890 C   0  0  0  0  0  0  0  0  0  0  0  0
   -1.1476   29.7593    2.8900 N   0  0  0  0  0  0  0  0  0  0  0  0
   -2.2735   29.3489    3.5301 C   0  0  0  0  0  0  0  0  0  0  0  0
   -4.2921   26.6712    4.6714 C   0  0  0  0  0  0  0  0  0  0  0  0
   -5.0513   25.8119    3.8572 C   0  0  0  0  0  0  0  0  0  0  0  0
   -4.6764   24.4782    3.6767 C   0  0  0  0  0  0  0  0  0  0  0  0
   -3.5370   23.9820    4.3069 C   0  0  0  0  0  0  0  0  0  0  0  0
   -2.7762   24.8224    5.1150 C   0  0  0  0  0  0  0  0  0  0  0  0
   -1.3704   24.2110    5.8972 Cl  0  0  0  0  0  0  0  0  0  0  0  0
   -3.1457   26.1555    5.2994 C   0  0  0  0  0  0  0  0  0  0  0  0
  2  1  1  6
  2  3  1  0
  3  4  1  0
  4  5  2  0
  5  6  1  0
  6  7  2  0
  7  8  1  0
  8  9  2  0
  2 10  1  0
 10 11  2  0
 11 12  1  0
 12 13  2  0
 13 14  1  0
 14 15  1  0
 14 16  2  0
  9  4  1  0
 16 10  1  0
M  END
>  <Energy>  (1076) 
52.09240225326009

>  <Energy_Delta>  (1076) 
0.40793979246733869

>  <std_smi>  (1076) 
CC(Nc1cccnc1)c1cccc(Cl)c1

>  <enum_smi>  (1076) 
C[C@H](Nc1cccnc1)c1cccc(Cl)c1

>  <enum_code>  (1076) 
C

>  <parent_uuid>  (1076) 
85d0fcce-c5b2-415e-8993-f2f147ae328b

>  <o3da_score>  (1076) 
68.543604313501731

>  <o3da_score_rel>  (1076) 
0.27288204787526965

>  <o3da_align>  (1076) 
0.45770975236861206

>  <RMSD>  (1076) 
7.3681756551795456e-05

>  <CONVERGED>  (1076) 
0

>  <ENERGY>  (1076) 
52.092402243316684

$$$$
72c4a8ce-9f33-46c2-b454-e94ecb6f2d78
     RDKit          3D

 16 17  0  0  0  0  0  0  0  0999 V2000
   -5.0174   29.5898    5.2072 C   0  0  0  0  0  0  0  0  0  0  0  0
   -3.6759   28.8629    5.0653 C   0  0  2  0  0  0  0  0  0  0  0  0
   -2.9535   29.3541    3.8924 N   0  0  0  0  0  0  0  0  0  0  0  0
   -2.3700   30.6148    3.8279 C   0  0  0  0  0  0  0  0  0  0  0  0
   -2.0248   31.3794    4.9429 C   0  0  0  0  0  0  0  0  0  0  0  0
   -1.3796   32.6091    4.7924 C   0  0  0  0  0  0  0  0  0  0  0  0
   -1.0678   33.0403    3.5159 C   0  0  0  0  0  0  0  0  0  0  0  0
   -1.3435   32.3308    2.4060 N   0  0  0  0  0  0  0  0  0  0  0  0
   -1.9658   31.1399    2.5946 C   0  0  0  0  0  0  0  0  0  0  0  0
   -3.7883   27.3485    4.9214 C   0  0  0  0  0  0  0  0  0  0  0  0
   -4.9579   26.6939    4.5022 C   0  0  0  0  0  0  0  0  0  0  0  0
   -4.9937   25.3016    4.3743 C   0  0  0  0  0  0  0  0  0  0  0  0
   -3.8593   24.5419    4.6542 C   0  0  0  0  0  0  0  0  0  0  0  0
   -2.6887   25.1775    5.0561 C   0  0  0  0  0  0  0  0  0  0  0  0
   -1.2825   24.2449    5.3930 Cl  0  0  0  0  0  0  0  0  0  0  0  0
   -2.6478   26.5655    5.1860 C   0  0  0  0  0  0  0  0  0  0  0  0
  2  1  1  6
  2  3  1  0
  3  4  1  0
  4  5  2  0
  5  6  1  0
  6  7  2  0
  7  8  1  0
  8  9  2  0
  2 10  1  0
 10 11  2  0
 11 12  1  0
 12 13  2  0
 13 14  1  0
 14 15  1  0
 14 16  2  0
  9  4  1  0
 16 10  1  0
M  END
>  <Energy>  (1077) 
52.553586395712969

>  <Energy_Delta>  (1077) 
0.86912393492021778

>  <std_smi>  (1077) 
CC(Nc1cccnc1)c1cccc(Cl)c1

>  <enum_smi>  (1077) 
C[C@H](Nc1cccnc1)c1cccc(Cl)c1

>  <enum_code>  (1077) 
C

>  <parent_uuid>  (1077) 
85d0fcce-c5b2-415e-8993-f2f147ae328b

>  <o3da_score>  (1077) 
76.512553200120607

>  <o3da_score_rel>  (1077) 
0.30460759124833031

>  <o3da_align>  (1077) 
0.51368828469682337

>  <RMSD>  (1077) 
0.33377022366553272

>  <CONVERGED>  (1077) 
0

>  <ENERGY>  (1077) 
52.597003978504112

$$$$
72c4a8ce-9f33-46c2-b454-e94ecb6f2d78
     RDKit          3D

 16 17  0  0  0  0  0  0  0  0999 V2000
   -5.4924   28.6481    4.3953 C   0  0  0  0  0  0  0  0  0  0  0  0
   -4.0921   28.0751    4.6379 C   0  0  2  0  0  0  0  0  0  0  0  0
   -3.1822   28.4889    3.5701 N   0  0  0  0  0  0  0  0  0  0  0  0
   -2.7115   29.7898    3.4287 C   0  0  0  0  0  0  0  0  0  0  0  0
   -2.6872   30.7335    4.4562 C   0  0  0  0  0  0  0  0  0  0  0  0
   -2.1342   31.9994    4.2491 C   0  0  0  0  0  0  0  0  0  0  0  0
   -1.5880   32.2879    3.0118 C   0  0  0  0  0  0  0  0  0  0  0  0
   -1.5500   31.4070    1.9950 N   0  0  0  0  0  0  0  0  0  0  0  0
   -2.0937   30.1877    2.2370 C   0  0  0  0  0  0  0  0  0  0  0  0
   -4.0340   26.5527    4.7132 C   0  0  0  0  0  0  0  0  0  0  0  0
   -2.9105   25.9531    5.3149 C   0  0  0  0  0  0  0  0  0  0  0  0
   -2.7906   24.5643    5.4022 C   0  0  0  0  0  0  0  0  0  0  0  0
   -3.7905   23.7470    4.8815 C   0  0  0  0  0  0  0  0  0  0  0  0
   -4.9006   24.3241    4.2710 C   0  0  0  0  0  0  0  0  0  0  0  0
   -6.1328   23.3153    3.6162 Cl  0  0  0  0  0  0  0  0  0  0  0  0
   -5.0252   25.7130    4.1805 C   0  0  0  0  0  0  0  0  0  0  0  0
  2  1  1  6
  2  3  1  0
  3  4  1  0
  4  5  2  0
  5  6  1  0
  6  7  2  0
  7  8  1  0
  8  9  2  0
  2 10  1  0
 10 11  2  0
 11 12  1  0
 12 13  2  0
 13 14  1  0
 14 15  1  0
 14 16  2  0
  9  4  1  0
 16 10  1  0
M  END
>  <Energy>  (1078) 
52.574454480731234

>  <Energy_Delta>  (1078) 
0.88999201993848231

>  <std_smi>  (1078) 
CC(Nc1cccnc1)c1cccc(Cl)c1

>  <enum_smi>  (1078) 
C[C@H](Nc1cccnc1)c1cccc(Cl)c1

>  <enum_code>  (1078) 
C

>  <parent_uuid>  (1078) 
85d0fcce-c5b2-415e-8993-f2f147ae328b

>  <o3da_score>  (1078) 
80.415358850092417

>  <o3da_score_rel>  (1078) 
0.32014522760244452

>  <o3da_align>  (1078) 
0.48719508500074027

>  <RMSD>  (1078) 
7.5958677589922112e-05

>  <CONVERGED>  (1078) 
0

>  <ENERGY>  (1078) 
52.574454454328901

$$$$
72c4a8ce-9f33-46c2-b454-e94ecb6f2d78
     RDKit          3D

 16 17  0  0  0  0  0  0  0  0999 V2000
   -5.8976   28.3441    5.2870 C   0  0  0  0  0  0  0  0  0  0  0  0
   -4.6497   28.0115    4.4613 C   0  0  2  0  0  0  0  0  0  0  0  0
   -4.8760   28.4461    3.0808 N   0  0  0  0  0  0  0  0  0  0  0  0
   -3.8382   28.5411    2.1520 C   0  0  0  0  0  0  0  0  0  0  0  0
   -2.4927   28.6975    2.4855 C   0  0  0  0  0  0  0  0  0  0  0  0
   -1.5251   28.8533    1.4902 C   0  0  0  0  0  0  0  0  0  0  0  0
   -1.9330   28.8796    0.1690 C   0  0  0  0  0  0  0  0  0  0  0  0
   -3.2197   28.7752   -0.2118 N   0  0  0  0  0  0  0  0  0  0  0  0
   -4.1285   28.6259    0.7844 C   0  0  0  0  0  0  0  0  0  0  0  0
   -4.3342   26.5252    4.5274 C   0  0  0  0  0  0  0  0  0  0  0  0
   -5.2167   25.5544    4.0218 C   0  0  0  0  0  0  0  0  0  0  0  0
   -4.9030   24.1946    4.0922 C   0  0  0  0  0  0  0  0  0  0  0  0
   -3.7031   23.7838    4.6695 C   0  0  0  0  0  0  0  0  0  0  0  0
   -2.8214   24.7351    5.1748 C   0  0  0  0  0  0  0  0  0  0  0  0
   -1.3386   24.2318    5.8889 Cl  0  0  0  0  0  0  0  0  0  0  0  0
   -3.1297   26.0944    5.1086 C   0  0  0  0  0  0  0  0  0  0  0  0
  2  1  1  1
  2  3  1  0
  3  4  1  0
  4  5  2  0
  5  6  1  0
  6  7  2  0
  7  8  1  0
  8  9  2  0
  2 10  1  0
 10 11  2  0
 11 12  1  0
 12 13  2  0
 13 14  1  0
 14 15  1  0
 14 16  2  0
  9  4  1  0
 16 10  1  0
M  END
>  <Energy>  (1079) 
52.77861084210501

>  <Energy_Delta>  (1079) 
1.0941483813122588

>  <std_smi>  (1079) 
CC(Nc1cccnc1)c1cccc(Cl)c1

>  <enum_smi>  (1079) 
C[C@H](Nc1cccnc1)c1cccc(Cl)c1

>  <enum_code>  (1079) 
C

>  <parent_uuid>  (1079) 
85d0fcce-c5b2-415e-8993-f2f147ae328b

>  <o3da_score>  (1079) 
70.615665229618358

>  <o3da_score_rel>  (1079) 
0.28113122344424152

>  <o3da_align>  (1079) 
0.30258072286757748

>  <RMSD>  (1079) 
6.8311811774825397e-05

>  <CONVERGED>  (1079) 
0

>  <ENERGY>  (1079) 
52.778610821434597

$$$$
72c4a8ce-9f33-46c2-b454-e94ecb6f2d78
     RDKit          3D

 16 17  0  0  0  0  0  0  0  0999 V2000
   -5.8791   28.4446    5.2687 C   0  0  0  0  0  0  0  0  0  0  0  0
   -4.6182   28.0945    4.4707 C   0  0  2  0  0  0  0  0  0  0  0  0
   -4.8286   28.4825    3.0744 N   0  0  0  0  0  0  0  0  0  0  0  0
   -3.7845   28.5463    2.1510 C   0  0  0  0  0  0  0  0  0  0  0  0
   -2.4389   28.6877    2.4906 C   0  0  0  0  0  0  0  0  0  0  0  0
   -1.4629   28.8145    1.4993 C   0  0  0  0  0  0  0  0  0  0  0  0
   -1.8623   28.8259    0.1753 C   0  0  0  0  0  0  0  0  0  0  0  0
   -3.1478   28.7331   -0.2120 N   0  0  0  0  0  0  0  0  0  0  0  0
   -4.0650   28.6119    0.7805 C   0  0  0  0  0  0  0  0  0  0  0  0
   -4.2957   26.6136    4.5952 C   0  0  0  0  0  0  0  0  0  0  0  0
   -3.1269   26.2063    5.2610 C   0  0  0  0  0  0  0  0  0  0  0  0
   -2.8105   24.8517    5.3910 C   0  0  0  0  0  0  0  0  0  0  0  0
   -3.6594   23.8828    4.8594 C   0  0  0  0  0  0  0  0  0  0  0  0
   -4.8220   24.2728    4.2003 C   0  0  0  0  0  0  0  0  0  0  0  0
   -5.8747   23.0783    3.5469 Cl  0  0  0  0  0  0  0  0  0  0  0  0
   -5.1435   25.6241    4.0677 C   0  0  0  0  0  0  0  0  0  0  0  0
  2  1  1  1
  2  3  1  0
  3  4  1  0
  4  5  2  0
  5  6  1  0
  6  7  2  0
  7  8  1  0
  8  9  2  0
  2 10  1  0
 10 11  2  0
 11 12  1  0
 12 13  2  0
 13 14  1  0
 14 15  1  0
 14 16  2  0
  9  4  1  0
 16 10  1  0
M  END
>  <Energy>  (1080) 
52.853111926036092

>  <Energy_Delta>  (1080) 
1.168649465243341

>  <std_smi>  (1080) 
CC(Nc1cccnc1)c1cccc(Cl)c1

>  <enum_smi>  (1080) 
C[C@H](Nc1cccnc1)c1cccc(Cl)c1

>  <enum_code>  (1080) 
C

>  <parent_uuid>  (1080) 
85d0fcce-c5b2-415e-8993-f2f147ae328b

>  <o3da_score>  (1080) 
70.365744688937127

>  <o3da_score_rel>  (1080) 
0.28013625345936494

>  <o3da_align>  (1080) 
0.31607581067162388

>  <RMSD>  (1080) 
0.00010451820200248549

>  <CONVERGED>  (1080) 
0

>  <ENERGY>  (1080) 
52.853111877361897

$$$$
72c4a8ce-9f33-46c2-b454-e94ecb6f2d78
     RDKit          3D

 16 17  0  0  0  0  0  0  0  0999 V2000
   -5.9132   28.6082    4.3829 C   0  0  0  0  0  0  0  0  0  0  0  0
   -4.6826   28.0607    5.1139 C   0  0  2  0  0  0  0  0  0  0  0  0
   -3.5564   29.0009    5.0079 N   0  0  0  0  0  0  0  0  0  0  0  0
   -2.9498   29.3855    3.8149 C   0  0  0  0  0  0  0  0  0  0  0  0
   -2.0911   30.4917    3.8301 C   0  0  0  0  0  0  0  0  0  0  0  0
   -1.4079   30.8900    2.6809 C   0  0  0  0  0  0  0  0  0  0  0  0
   -1.5819   30.1499    1.5275 C   0  0  0  0  0  0  0  0  0  0  0  0
   -2.3657   29.0577    1.4596 N   0  0  0  0  0  0  0  0  0  0  0  0
   -3.0059   28.6959    2.6033 C   0  0  0  0  0  0  0  0  0  0  0  0
   -4.2708   26.6247    4.8191 C   0  0  0  0  0  0  0  0  0  0  0  0
   -5.0429   25.7576    4.0276 C   0  0  0  0  0  0  0  0  0  0  0  0
   -4.6390   24.4376    3.8019 C   0  0  0  0  0  0  0  0  0  0  0  0
   -3.4618   23.9573    4.3716 C   0  0  0  0  0  0  0  0  0  0  0  0
   -2.6919   24.7984    5.1684 C   0  0  0  0  0  0  0  0  0  0  0  0
   -1.2420   24.2076    5.8825 Cl  0  0  0  0  0  0  0  0  0  0  0  0
   -3.0906   26.1154    5.3959 C   0  0  0  0  0  0  0  0  0  0  0  0
  2  1  1  6
  2  3  1  0
  3  4  1  0
  4  5  2  0
  5  6  1  0
  6  7  2  0
  7  8  1  0
  8  9  2  0
  2 10  1  0
 10 11  2  0
 11 12  1  0
 12 13  2  0
 13 14  1  0
 14 15  1  0
 14 16  2  0
  9  4  1  0
 16 10  1  0
M  END
>  <Energy>  (1081) 
55.417374694640117

>  <Energy_Delta>  (1081) 
3.7329122338473653

>  <std_smi>  (1081) 
CC(Nc1cccnc1)c1cccc(Cl)c1

>  <enum_smi>  (1081) 
C[C@H](Nc1cccnc1)c1cccc(Cl)c1

>  <enum_code>  (1081) 
C

>  <parent_uuid>  (1081) 
85d0fcce-c5b2-415e-8993-f2f147ae328b

>  <o3da_score>  (1081) 
101.3618431553015

>  <o3da_score_rel>  (1081) 
0.40353622505932502

>  <o3da_align>  (1081) 
0.38122356764367604

>  <RMSD>  (1081) 
7.0201216003672848e-05

>  <CONVERGED>  (1081) 
0

>  <ENERGY>  (1081) 
55.417374661187935

$$$$
72c4a8ce-9f33-46c2-b454-e94ecb6f2d78
     RDKit          3D

 16 17  0  0  0  0  0  0  0  0999 V2000
   -5.9042   28.6237    4.4591 C   0  0  0  0  0  0  0  0  0  0  0  0
   -4.6633   28.1048    5.1940 C   0  0  2  0  0  0  0  0  0  0  0  0
   -3.5420   29.0455    5.0404 N   0  0  0  0  0  0  0  0  0  0  0  0
   -2.9556   29.3893    3.8245 C   0  0  0  0  0  0  0  0  0  0  0  0
   -2.1113   30.5060    3.7841 C   0  0  0  0  0  0  0  0  0  0  0  0
   -1.4476   30.8659    2.6111 C   0  0  0  0  0  0  0  0  0  0  0  0
   -1.6249   30.0767    1.4913 C   0  0  0  0  0  0  0  0  0  0  0  0
   -2.3941   28.9722    1.4783 N   0  0  0  0  0  0  0  0  0  0  0  0
   -3.0172   28.6498    2.6430 C   0  0  0  0  0  0  0  0  0  0  0  0
   -4.2535   26.6590    4.9457 C   0  0  0  0  0  0  0  0  0  0  0  0
   -3.0460   26.1778    5.4887 C   0  0  0  0  0  0  0  0  0  0  0  0
   -2.6443   24.8522    5.3072 C   0  0  0  0  0  0  0  0  0  0  0  0
   -3.4499   23.9745    4.5874 C   0  0  0  0  0  0  0  0  0  0  0  0
   -4.6532   24.4283    4.0557 C   0  0  0  0  0  0  0  0  0  0  0  0
   -5.6573   23.3434    3.1729 Cl  0  0  0  0  0  0  0  0  0  0  0  0
   -5.0582   25.7541    4.2334 C   0  0  0  0  0  0  0  0  0  0  0  0
  2  1  1  6
  2  3  1  0
  3  4  1  0
  4  5  2  0
  5  6  1  0
  6  7  2  0
  7  8  1  0
  8  9  2  0
  2 10  1  0
 10 11  2  0
 11 12  1  0
 12 13  2  0
 13 14  1  0
 14 15  1  0
 14 16  2  0
  9  4  1  0
 16 10  1  0
M  END
>  <Energy>  (1082) 
55.586168098934706

>  <Energy_Delta>  (1082) 
3.901705638141955

>  <std_smi>  (1082) 
CC(Nc1cccnc1)c1cccc(Cl)c1

>  <enum_smi>  (1082) 
C[C@H](Nc1cccnc1)c1cccc(Cl)c1

>  <enum_code>  (1082) 
C

>  <parent_uuid>  (1082) 
85d0fcce-c5b2-415e-8993-f2f147ae328b

>  <o3da_score>  (1082) 
100.95801416236036

>  <o3da_score_rel>  (1082) 
0.40192852316373795

>  <o3da_align>  (1082) 
0.38800147266410512

>  <RMSD>  (1082) 
6.660461016127322e-05

>  <CONVERGED>  (1082) 
0

>  <ENERGY>  (1082) 
55.586168094379445

$$$$
72c4a8ce-9f33-46c2-b454-e94ecb6f2d78
     RDKit          3D

 16 17  0  0  0  0  0  0  0  0999 V2000
   -5.9379   28.5918    4.4042 C   0  0  0  0  0  0  0  0  0  0  0  0
   -4.6984   28.0555    5.1287 C   0  0  2  0  0  0  0  0  0  0  0  0
   -3.5759   28.9966    4.9973 N   0  0  0  0  0  0  0  0  0  0  0  0
   -2.9844   29.3823    3.7974 C   0  0  0  0  0  0  0  0  0  0  0  0
   -3.0520   28.6613    2.6063 C   0  0  0  0  0  0  0  0  0  0  0  0
   -2.3644   29.0910    1.4684 C   0  0  0  0  0  0  0  0  0  0  0  0
   -1.5941   30.2358    1.5536 C   0  0  0  0  0  0  0  0  0  0  0  0
   -1.4613   30.9557    2.6824 N   0  0  0  0  0  0  0  0  0  0  0  0
   -2.1395   30.5000    3.7659 C   0  0  0  0  0  0  0  0  0  0  0  0
   -4.2916   26.6138    4.8514 C   0  0  0  0  0  0  0  0  0  0  0  0
   -5.0971   25.7240    4.1203 C   0  0  0  0  0  0  0  0  0  0  0  0
   -4.7005   24.3992    3.9108 C   0  0  0  0  0  0  0  0  0  0  0  0
   -3.4961   23.9368    4.4366 C   0  0  0  0  0  0  0  0  0  0  0  0
   -2.6924   24.8003    5.1741 C   0  0  0  0  0  0  0  0  0  0  0  0
   -1.2080   24.2311    5.8327 Cl  0  0  0  0  0  0  0  0  0  0  0  0
   -3.0845   26.1218    5.3861 C   0  0  0  0  0  0  0  0  0  0  0  0
  2  1  1  6
  2  3  1  0
  3  4  1  0
  4  5  2  0
  5  6  1  0
  6  7  2  0
  7  8  1  0
  8  9  2  0
  2 10  1  0
 10 11  2  0
 11 12  1  0
 12 13  2  0
 13 14  1  0
 14 15  1  0
 14 16  2  0
  9  4  1  0
 16 10  1  0
M  END
>  <Energy>  (1083) 
56.411234464755537

>  <Energy_Delta>  (1083) 
4.7267720039627861

>  <std_smi>  (1083) 
CC(Nc1cccnc1)c1cccc(Cl)c1

>  <enum_smi>  (1083) 
C[C@H](Nc1cccnc1)c1cccc(Cl)c1

>  <enum_code>  (1083) 
C

>  <parent_uuid>  (1083) 
85d0fcce-c5b2-415e-8993-f2f147ae328b

>  <o3da_score>  (1083) 
103.733195016755

>  <o3da_score_rel>  (1083) 
0.41297692136742392

>  <o3da_align>  (1083) 
0.35568948023603481

>  <RMSD>  (1083) 
7.6041698693524951e-05

>  <CONVERGED>  (1083) 
0

>  <ENERGY>  (1083) 
56.411234398179218

$$$$
72c4a8ce-9f33-46c2-b454-e94ecb6f2d78
     RDKit          3D

 16 17  0  0  0  0  0  0  0  0999 V2000
   -5.9995   28.6027    4.5507 C   0  0  0  0  0  0  0  0  0  0  0  0
   -4.7205   28.0981    5.2280 C   0  0  2  0  0  0  0  0  0  0  0  0
   -3.6198   29.0538    5.0300 N   0  0  0  0  0  0  0  0  0  0  0  0
   -3.0863   29.4235    3.7982 C   0  0  0  0  0  0  0  0  0  0  0  0
   -3.1984   28.6808    2.6239 C   0  0  0  0  0  0  0  0  0  0  0  0
   -2.5665   29.0971    1.4494 C   0  0  0  0  0  0  0  0  0  0  0  0
   -1.8046   30.2502    1.4808 C   0  0  0  0  0  0  0  0  0  0  0  0
   -1.6287   30.9906    2.5904 N   0  0  0  0  0  0  0  0  0  0  0  0
   -2.2550   30.5484    3.7101 C   0  0  0  0  0  0  0  0  0  0  0  0
   -4.3037   26.6575    4.9594 C   0  0  0  0  0  0  0  0  0  0  0  0
   -3.0695   26.1897    5.4515 C   0  0  0  0  0  0  0  0  0  0  0  0
   -2.6593   24.8697    5.2499 C   0  0  0  0  0  0  0  0  0  0  0  0
   -3.4821   23.9844    4.5593 C   0  0  0  0  0  0  0  0  0  0  0  0
   -4.7110   24.4251    4.0774 C   0  0  0  0  0  0  0  0  0  0  0  0
   -5.7340   23.3323    3.2267 Cl  0  0  0  0  0  0  0  0  0  0  0  0
   -5.1253   25.7449    4.2768 C   0  0  0  0  0  0  0  0  0  0  0  0
  2  1  1  6
  2  3  1  0
  3  4  1  0
  4  5  2  0
  5  6  1  0
  6  7  2  0
  7  8  1  0
  8  9  2  0
  2 10  1  0
 10 11  2  0
 11 12  1  0
 12 13  2  0
 13 14  1  0
 14 15  1  0
 14 16  2  0
  9  4  1  0
 16 10  1  0
M  END
>  <Energy>  (1084) 
57.160451902004645

>  <Energy_Delta>  (1084) 
5.4759894412118939

>  <std_smi>  (1084) 
CC(Nc1cccnc1)c1cccc(Cl)c1

>  <enum_smi>  (1084) 
C[C@H](Nc1cccnc1)c1cccc(Cl)c1

>  <enum_code>  (1084) 
C

>  <parent_uuid>  (1084) 
85d0fcce-c5b2-415e-8993-f2f147ae328b

>  <o3da_score>  (1084) 
91.973933820665195

>  <o3da_score_rel>  (1084) 
0.36616159397360182

>  <o3da_align>  (1084) 
0.50299876787102804

>  <RMSD>  (1084) 
0.22146376548354471

>  <CONVERGED>  (1084) 
0

>  <ENERGY>  (1084) 
56.363561196571759

$$$$
3f771132-9cd3-4f4e-9c37-f11a9c23c29b
     RDKit          3D

 16 17  0  0  0  0  0  0  0  0999 V2000
   -2.2450   28.3845    5.6282 C   0  0  0  0  0  0  0  0  0  0  0  0
   -3.4474   28.8545    4.8028 C   0  0  1  0  0  0  0  0  0  0  0  0
   -3.0255   29.2230    3.4514 N   0  0  0  0  0  0  0  0  0  0  0  0
   -2.2924   30.3729    3.1775 C   0  0  0  0  0  0  0  0  0  0  0  0
   -1.6888   30.5059    1.9228 C   0  0  0  0  0  0  0  0  0  0  0  0
   -0.9970   31.6675    1.5795 C   0  0  0  0  0  0  0  0  0  0  0  0
   -0.9435   32.6949    2.5025 C   0  0  0  0  0  0  0  0  0  0  0  0
   -1.5345   32.6381    3.7115 N   0  0  0  0  0  0  0  0  0  0  0  0
   -2.2028   31.4929    4.0061 C   0  0  0  0  0  0  0  0  0  0  0  0
   -4.5580   27.8195    4.6604 C   0  0  0  0  0  0  0  0  0  0  0  0
   -5.8562   28.2647    4.3451 C   0  0  0  0  0  0  0  0  0  0  0  0
   -6.9112   27.3635    4.1851 C   0  0  0  0  0  0  0  0  0  0  0  0
   -6.6853   25.9970    4.3286 C   0  0  0  0  0  0  0  0  0  0  0  0
   -5.4039   25.5400    4.6243 C   0  0  0  0  0  0  0  0  0  0  0  0
   -5.1192   23.8499    4.7887 Cl  0  0  0  0  0  0  0  0  0  0  0  0
   -4.3449   26.4372    4.7853 C   0  0  0  0  0  0  0  0  0  0  0  0
  2  1  1  1
  2  3  1  0
  3  4  1  0
  4  5  2  0
  5  6  1  0
  6  7  2  0
  7  8  1  0
  8  9  2  0
  2 10  1  0
 10 11  2  0
 11 12  1  0
 12 13  2  0
 13 14  1  0
 14 15  1  0
 14 16  2  0
  9  4  1  0
 16 10  1  0
M  END
>  <Energy>  (1085) 
51.684462459187479

>  <Energy_Delta>  (1085) 
0

>  <std_smi>  (1085) 
CC(Nc1cccnc1)c1cccc(Cl)c1

>  <enum_smi>  (1085) 
C[C@@H](Nc1cccnc1)c1cccc(Cl)c1

>  <enum_code>  (1085) 
C

>  <parent_uuid>  (1085) 
85d0fcce-c5b2-415e-8993-f2f147ae328b

>  <o3da_score>  (1085) 
66.957590824070479

>  <o3da_score_rel>  (1085) 
0.26656789773262024

>  <o3da_align>  (1085) 
0.39174955078811885

>  <RMSD>  (1085) 
0.34205461533089115

>  <CONVERGED>  (1085) 
0

>  <ENERGY>  (1085) 
51.759355391062059

$$$$
3f771132-9cd3-4f4e-9c37-f11a9c23c29b
     RDKit          3D

 16 17  0  0  0  0  0  0  0  0999 V2000
   -5.8194   26.0149    6.0659 C   0  0  0  0  0  0  0  0  0  0  0  0
   -4.6778   26.5220    5.1785 C   0  0  1  0  0  0  0  0  0  0  0  0
   -4.6203   25.7505    3.9366 N   0  0  0  0  0  0  0  0  0  0  0  0
   -4.1742   24.4343    3.8849 C   0  0  0  0  0  0  0  0  0  0  0  0
   -4.4105   23.6865    2.7267 C   0  0  0  0  0  0  0  0  0  0  0  0
   -3.9277   22.3836    2.6036 C   0  0  0  0  0  0  0  0  0  0  0  0
   -3.1887   21.8577    3.6465 C   0  0  0  0  0  0  0  0  0  0  0  0
   -2.9001   22.5414    4.7705 N   0  0  0  0  0  0  0  0  0  0  0  0
   -3.3823   23.8087    4.8496 C   0  0  0  0  0  0  0  0  0  0  0  0
   -4.7811   27.9928    4.7886 C   0  0  0  0  0  0  0  0  0  0  0  0
   -5.9746   28.7303    4.8498 C   0  0  0  0  0  0  0  0  0  0  0  0
   -6.0079   30.0742    4.4638 C   0  0  0  0  0  0  0  0  0  0  0  0
   -4.8517   30.7004    4.0022 C   0  0  0  0  0  0  0  0  0  0  0  0
   -3.6646   29.9791    3.9225 C   0  0  0  0  0  0  0  0  0  0  0  0
   -2.2369   30.7449    3.3430 Cl  0  0  0  0  0  0  0  0  0  0  0  0
   -3.6257   28.6391    4.3073 C   0  0  0  0  0  0  0  0  0  0  0  0
  2  1  1  6
  2  3  1  0
  3  4  1  0
  4  5  2  0
  5  6  1  0
  6  7  2  0
  7  8  1  0
  8  9  2  0
  2 10  1  0
 10 11  2  0
 11 12  1  0
 12 13  2  0
 13 14  1  0
 14 15  1  0
 14 16  2  0
  9  4  1  0
 16 10  1  0
M  END
>  <Energy>  (1086) 
51.723635771764059

>  <Energy_Delta>  (1086) 
0.039173312576579633

>  <std_smi>  (1086) 
CC(Nc1cccnc1)c1cccc(Cl)c1

>  <enum_smi>  (1086) 
C[C@@H](Nc1cccnc1)c1cccc(Cl)c1

>  <enum_code>  (1086) 
C

>  <parent_uuid>  (1086) 
85d0fcce-c5b2-415e-8993-f2f147ae328b

>  <o3da_score>  (1086) 
73.0758895207818

>  <o3da_score_rel>  (1086) 
0.29092573380781339

>  <o3da_align>  (1086) 
0.49739604195782017

>  <RMSD>  (1086) 
0.35235760013452561

>  <CONVERGED>  (1086) 
0

>  <ENERGY>  (1086) 
51.830104918902215

$$$$
3f771132-9cd3-4f4e-9c37-f11a9c23c29b
     RDKit          3D

 16 17  0  0  0  0  0  0  0  0999 V2000
   -6.1242   28.0333    5.1380 C   0  0  0  0  0  0  0  0  0  0  0  0
   -4.7204   27.9501    4.5280 C   0  0  1  0  0  0  0  0  0  0  0  0
   -4.2403   29.3120    4.2796 N   0  0  0  0  0  0  0  0  0  0  0  0
   -3.1524   29.5649    3.4416 C   0  0  0  0  0  0  0  0  0  0  0  0
   -2.5370   30.8203    3.4992 C   0  0  0  0  0  0  0  0  0  0  0  0
   -1.4907   31.1463    2.6363 C   0  0  0  0  0  0  0  0  0  0  0  0
   -1.0947   30.2068    1.7030 C   0  0  0  0  0  0  0  0  0  0  0  0
   -1.6746   28.9983    1.5744 N   0  0  0  0  0  0  0  0  0  0  0  0
   -2.6908   28.7188    2.4318 C   0  0  0  0  0  0  0  0  0  0  0  0
   -3.7686   27.1941    5.4419 C   0  0  0  0  0  0  0  0  0  0  0  0
   -3.4716   27.6438    6.7408 C   0  0  0  0  0  0  0  0  0  0  0  0
   -2.5927   26.9333    7.5622 C   0  0  0  0  0  0  0  0  0  0  0  0
   -1.9967   25.7622    7.0986 C   0  0  0  0  0  0  0  0  0  0  0  0
   -2.2817   25.3065    5.8144 C   0  0  0  0  0  0  0  0  0  0  0  0
   -1.5495   23.8585    5.2408 Cl  0  0  0  0  0  0  0  0  0  0  0  0
   -3.1589   26.0117    4.9893 C   0  0  0  0  0  0  0  0  0  0  0  0
  2  1  1  1
  2  3  1  0
  3  4  1  0
  4  5  2  0
  5  6  1  0
  6  7  2  0
  7  8  1  0
  8  9  2  0
  2 10  1  0
 10 11  2  0
 11 12  1  0
 12 13  2  0
 13 14  1  0
 14 15  1  0
 14 16  2  0
  9  4  1  0
 16 10  1  0
M  END
>  <Energy>  (1087) 
52.09240224905794

>  <Energy_Delta>  (1087) 
0.40793978987046131

>  <std_smi>  (1087) 
CC(Nc1cccnc1)c1cccc(Cl)c1

>  <enum_smi>  (1087) 
C[C@@H](Nc1cccnc1)c1cccc(Cl)c1

>  <enum_code>  (1087) 
C

>  <parent_uuid>  (1087) 
85d0fcce-c5b2-415e-8993-f2f147ae328b

>  <o3da_score>  (1087) 
76.873753524429816

>  <o3da_score_rel>  (1087) 
0.3060455822203238

>  <o3da_align>  (1087) 
0.57770033588217307

>  <RMSD>  (1087) 
6.0369354451094185e-05

>  <CONVERGED>  (1087) 
0

>  <ENERGY>  (1087) 
52.092402243478432

$$$$
3f771132-9cd3-4f4e-9c37-f11a9c23c29b
     RDKit          3D

 16 17  0  0  0  0  0  0  0  0999 V2000
   -5.4123   28.2187    6.2618 C   0  0  0  0  0  0  0  0  0  0  0  0
   -4.6804   28.0772    4.9224 C   0  0  1  0  0  0  0  0  0  0  0  0
   -3.5751   29.0388    4.8922 N   0  0  0  0  0  0  0  0  0  0  0  0
   -2.9204   29.3652    3.7029 C   0  0  0  0  0  0  0  0  0  0  0  0
   -1.6820   30.0128    3.7720 C   0  0  0  0  0  0  0  0  0  0  0  0
   -1.0199   30.4187    2.6134 C   0  0  0  0  0  0  0  0  0  0  0  0
   -1.6313   30.1896    1.3950 C   0  0  0  0  0  0  0  0  0  0  0  0
   -2.8386   29.6066    1.2680 N   0  0  0  0  0  0  0  0  0  0  0  0
   -3.4520   29.2271    2.4194 C   0  0  0  0  0  0  0  0  0  0  0  0
   -4.1759   26.6570    4.7209 C   0  0  0  0  0  0  0  0  0  0  0  0
   -4.6484   25.8928    3.6404 C   0  0  0  0  0  0  0  0  0  0  0  0
   -4.1954   24.5876    3.4325 C   0  0  0  0  0  0  0  0  0  0  0  0
   -3.2633   24.0251    4.3024 C   0  0  0  0  0  0  0  0  0  0  0  0
   -2.7875   24.7713    5.3769 C   0  0  0  0  0  0  0  0  0  0  0  0
   -1.6361   24.0803    6.4536 Cl  0  0  0  0  0  0  0  0  0  0  0  0
   -3.2363   26.0753    5.5899 C   0  0  0  0  0  0  0  0  0  0  0  0
  2  1  1  1
  2  3  1  0
  3  4  1  0
  4  5  2  0
  5  6  1  0
  6  7  2  0
  7  8  1  0
  8  9  2  0
  2 10  1  0
 10 11  2  0
 11 12  1  0
 12 13  2  0
 13 14  1  0
 14 15  1  0
 14 16  2  0
  9  4  1  0
 16 10  1  0
M  END
>  <Energy>  (1088) 
52.205170440181789

>  <Energy_Delta>  (1088) 
0.52070798099430959

>  <std_smi>  (1088) 
CC(Nc1cccnc1)c1cccc(Cl)c1

>  <enum_smi>  (1088) 
C[C@@H](Nc1cccnc1)c1cccc(Cl)c1

>  <enum_code>  (1088) 
C

>  <parent_uuid>  (1088) 
85d0fcce-c5b2-415e-8993-f2f147ae328b

>  <o3da_score>  (1088) 
95.26004852134048

>  <o3da_score_rel>  (1088) 
0.37924409405591314

>  <o3da_align>  (1088) 
0.36830662400865416

>  <RMSD>  (1088) 
0.4100771371194239

>  <CONVERGED>  (1088) 
0

>  <ENERGY>  (1088) 
51.741359923799415

$$$$
3f771132-9cd3-4f4e-9c37-f11a9c23c29b
     RDKit          3D

 16 17  0  0  0  0  0  0  0  0999 V2000
   -2.2288   28.6194    5.7400 C   0  0  0  0  0  0  0  0  0  0  0  0
   -3.4479   29.0470    4.9161 C   0  0  1  0  0  0  0  0  0  0  0  0
   -3.0404   29.4190    3.5616 N   0  0  0  0  0  0  0  0  0  0  0  0
   -2.3332   30.5802    3.2690 C   0  0  0  0  0  0  0  0  0  0  0  0
   -2.2912   31.7042    4.0946 C   0  0  0  0  0  0  0  0  0  0  0  0
   -1.6113   32.8573    3.6954 C   0  0  0  0  0  0  0  0  0  0  0  0
   -1.0024   32.8694    2.4538 C   0  0  0  0  0  0  0  0  0  0  0  0
   -1.0391   31.8293    1.6003 N   0  0  0  0  0  0  0  0  0  0  0  0
   -1.7134   30.7303    2.0227 C   0  0  0  0  0  0  0  0  0  0  0  0
   -4.5281   27.9785    4.7821 C   0  0  0  0  0  0  0  0  0  0  0  0
   -4.2915   26.6077    4.9751 C   0  0  0  0  0  0  0  0  0  0  0  0
   -5.3213   25.6738    4.8221 C   0  0  0  0  0  0  0  0  0  0  0  0
   -6.6014   26.0932    4.4650 C   0  0  0  0  0  0  0  0  0  0  0  0
   -6.8478   27.4465    4.2558 C   0  0  0  0  0  0  0  0  0  0  0  0
   -8.4242   27.9683    3.8049 Cl  0  0  0  0  0  0  0  0  0  0  0  0
   -5.8247   28.3820    4.4078 C   0  0  0  0  0  0  0  0  0  0  0  0
  2  1  1  1
  2  3  1  0
  3  4  1  0
  4  5  2  0
  5  6  1  0
  6  7  2  0
  7  8  1  0
  8  9  2  0
  2 10  1  0
 10 11  2  0
 11 12  1  0
 12 13  2  0
 13 14  1  0
 14 15  1  0
 14 16  2  0
  9  4  1  0
 16 10  1  0
M  END
>  <Energy>  (1089) 
52.553586410383133

>  <Energy_Delta>  (1089) 
0.86912395119565389

>  <std_smi>  (1089) 
CC(Nc1cccnc1)c1cccc(Cl)c1

>  <enum_smi>  (1089) 
C[C@@H](Nc1cccnc1)c1cccc(Cl)c1

>  <enum_code>  (1089) 
C

>  <parent_uuid>  (1089) 
85d0fcce-c5b2-415e-8993-f2f147ae328b

>  <o3da_score>  (1089) 
70.575978402737874

>  <o3da_score_rel>  (1089) 
0.28097322442009792

>  <o3da_align>  (1089) 
0.43538286079436705

>  <RMSD>  (1089) 
0.33381088036837431

>  <CONVERGED>  (1089) 
0

>  <ENERGY>  (1089) 
52.597003979009401

$$$$
3f771132-9cd3-4f4e-9c37-f11a9c23c29b
     RDKit          3D

 16 17  0  0  0  0  0  0  0  0999 V2000
   -2.2994   28.4496    5.8041 C   0  0  0  0  0  0  0  0  0  0  0  0
   -3.5290   28.9954    5.0706 C   0  0  1  0  0  0  0  0  0  0  0  0
   -3.1289   29.6453    3.8228 N   0  0  0  0  0  0  0  0  0  0  0  0
   -2.4616   30.8645    3.7760 C   0  0  0  0  0  0  0  0  0  0  0  0
   -2.4561   31.7983    4.8128 C   0  0  0  0  0  0  0  0  0  0  0  0
   -1.8165   33.0306    4.6592 C   0  0  0  0  0  0  0  0  0  0  0  0
   -1.2114   33.3153    3.4487 C   0  0  0  0  0  0  0  0  0  0  0  0
   -1.2152   32.4699    2.4016 N   0  0  0  0  0  0  0  0  0  0  0  0
   -1.8498   31.2853    2.5891 C   0  0  0  0  0  0  0  0  0  0  0  0
   -4.5742   27.9430    4.7143 C   0  0  0  0  0  0  0  0  0  0  0  0
   -5.8816   28.3712    4.4123 C   0  0  0  0  0  0  0  0  0  0  0  0
   -6.8802   27.4588    4.0648 C   0  0  0  0  0  0  0  0  0  0  0  0
   -6.5878   26.0987    4.0049 C   0  0  0  0  0  0  0  0  0  0  0  0
   -5.2966   25.6609    4.2867 C   0  0  0  0  0  0  0  0  0  0  0  0
   -4.9298   23.9807    4.2021 Cl  0  0  0  0  0  0  0  0  0  0  0  0
   -4.2937   26.5697    4.6344 C   0  0  0  0  0  0  0  0  0  0  0  0
  2  1  1  6
  2  3  1  0
  3  4  1  0
  4  5  2  0
  5  6  1  0
  6  7  2  0
  7  8  1  0
  8  9  2  0
  2 10  1  0
 10 11  2  0
 11 12  1  0
 12 13  2  0
 13 14  1  0
 14 15  1  0
 14 16  2  0
  9  4  1  0
 16 10  1  0
M  END
>  <Energy>  (1090) 
52.574454468752236

>  <Energy_Delta>  (1090) 
0.88999200956475732

>  <std_smi>  (1090) 
CC(Nc1cccnc1)c1cccc(Cl)c1

>  <enum_smi>  (1090) 
C[C@@H](Nc1cccnc1)c1cccc(Cl)c1

>  <enum_code>  (1090) 
C

>  <parent_uuid>  (1090) 
85d0fcce-c5b2-415e-8993-f2f147ae328b

>  <o3da_score>  (1090) 
74.702556601037472

>  <o3da_score_rel>  (1090) 
0.29740173180233404

>  <o3da_align>  (1090) 
0.23713863773885402

>  <RMSD>  (1090) 
7.5538441022340603e-05

>  <CONVERGED>  (1090) 
0

>  <ENERGY>  (1090) 
52.574454454421996

$$$$
3f771132-9cd3-4f4e-9c37-f11a9c23c29b
     RDKit          3D

 16 17  0  0  0  0  0  0  0  0999 V2000
   -6.1574   27.9874    5.0465 C   0  0  0  0  0  0  0  0  0  0  0  0
   -4.7630   27.8999    4.4160 C   0  0  1  0  0  0  0  0  0  0  0  0
   -4.2710   29.2601    4.1845 N   0  0  0  0  0  0  0  0  0  0  0  0
   -3.1646   29.5225    3.3747 C   0  0  0  0  0  0  0  0  0  0  0  0
   -2.7031   28.6721    2.3696 C   0  0  0  0  0  0  0  0  0  0  0  0
   -1.6282   29.0443    1.5589 C   0  0  0  0  0  0  0  0  0  0  0  0
   -1.0510   30.2859    1.7540 C   0  0  0  0  0  0  0  0  0  0  0  0
   -1.4787   31.1652    2.6789 N   0  0  0  0  0  0  0  0  0  0  0  0
   -2.5248   30.7664    3.4453 C   0  0  0  0  0  0  0  0  0  0  0  0
   -3.8126   27.1130    5.3051 C   0  0  0  0  0  0  0  0  0  0  0  0
   -3.4613   27.5548    6.5929 C   0  0  0  0  0  0  0  0  0  0  0  0
   -2.5841   26.8150    7.3900 C   0  0  0  0  0  0  0  0  0  0  0  0
   -2.0447   25.6219    6.9130 C   0  0  0  0  0  0  0  0  0  0  0  0
   -2.3854   25.1731    5.6401 C   0  0  0  0  0  0  0  0  0  0  0  0
   -1.7218   23.6999    5.0474 Cl  0  0  0  0  0  0  0  0  0  0  0  0
   -3.2621   25.9068    4.8399 C   0  0  0  0  0  0  0  0  0  0  0  0
  2  1  1  1
  2  3  1  0
  3  4  1  0
  4  5  2  0
  5  6  1  0
  6  7  2  0
  7  8  1  0
  8  9  2  0
  2 10  1  0
 10 11  2  0
 11 12  1  0
 12 13  2  0
 13 14  1  0
 14 15  1  0
 14 16  2  0
  9  4  1  0
 16 10  1  0
M  END
>  <Energy>  (1091) 
52.778610852280153

>  <Energy_Delta>  (1091) 
1.0941483930926736

>  <std_smi>  (1091) 
CC(Nc1cccnc1)c1cccc(Cl)c1

>  <enum_smi>  (1091) 
C[C@@H](Nc1cccnc1)c1cccc(Cl)c1

>  <enum_code>  (1091) 
C

>  <parent_uuid>  (1091) 
85d0fcce-c5b2-415e-8993-f2f147ae328b

>  <o3da_score>  (1091) 
77.076602424952029

>  <o3da_score_rel>  (1091) 
0.30685315316641198

>  <o3da_align>  (1091) 
0.58778369101086181

>  <RMSD>  (1091) 
7.845746509056293e-05

>  <CONVERGED>  (1091) 
0

>  <ENERGY>  (1091) 
52.77861082128657

$$$$
3f771132-9cd3-4f4e-9c37-f11a9c23c29b
     RDKit          3D

 16 17  0  0  0  0  0  0  0  0999 V2000
   -5.3173   28.1806    6.5985 C   0  0  0  0  0  0  0  0  0  0  0  0
   -4.7748   28.1363    5.1657 C   0  0  1  0  0  0  0  0  0  0  0  0
   -3.7118   29.1357    5.0396 N   0  0  0  0  0  0  0  0  0  0  0  0
   -3.2021   29.5325    3.8028 C   0  0  0  0  0  0  0  0  0  0  0  0
   -3.8786   29.3962    2.5905 C   0  0  0  0  0  0  0  0  0  0  0  0
   -3.3237   29.8852    1.4055 C   0  0  0  0  0  0  0  0  0  0  0  0
   -2.1032   30.5329    1.4644 C   0  0  0  0  0  0  0  0  0  0  0  0
   -1.4228   30.7293    2.6088 N   0  0  0  0  0  0  0  0  0  0  0  0
   -1.9952   30.2400    3.7374 C   0  0  0  0  0  0  0  0  0  0  0  0
   -4.2731   26.7424    4.8224 C   0  0  0  0  0  0  0  0  0  0  0  0
   -4.9321   25.9849    3.8389 C   0  0  0  0  0  0  0  0  0  0  0  0
   -4.4920   24.7008    3.5082 C   0  0  0  0  0  0  0  0  0  0  0  0
   -3.3874   24.1530    4.1574 C   0  0  0  0  0  0  0  0  0  0  0  0
   -2.7276   24.8917    5.1357 C   0  0  0  0  0  0  0  0  0  0  0  0
   -1.3659   24.2159    5.9427 Cl  0  0  0  0  0  0  0  0  0  0  0  0
   -3.1626   26.1745    5.4707 C   0  0  0  0  0  0  0  0  0  0  0  0
  2  1  1  1
  2  3  1  0
  3  4  1  0
  4  5  2  0
  5  6  1  0
  6  7  2  0
  7  8  1  0
  8  9  2  0
  2 10  1  0
 10 11  2  0
 11 12  1  0
 12 13  2  0
 13 14  1  0
 14 15  1  0
 14 16  2  0
  9  4  1  0
 16 10  1  0
M  END
>  <Energy>  (1092) 
52.85311189015443

>  <Energy_Delta>  (1092) 
1.1686494309669513

>  <std_smi>  (1092) 
CC(Nc1cccnc1)c1cccc(Cl)c1

>  <enum_smi>  (1092) 
C[C@@H](Nc1cccnc1)c1cccc(Cl)c1

>  <enum_code>  (1092) 
C

>  <parent_uuid>  (1092) 
85d0fcce-c5b2-415e-8993-f2f147ae328b

>  <o3da_score>  (1092) 
80.2005251537623

>  <o3da_score_rel>  (1092) 
0.31928994344290362

>  <o3da_align>  (1092) 
0.50906391565006071

>  <RMSD>  (1092) 
9.0436412979124611e-05

>  <CONVERGED>  (1092) 
0

>  <ENERGY>  (1092) 
52.853111877910926

$$$$
3f771132-9cd3-4f4e-9c37-f11a9c23c29b
     RDKit          3D

 16 17  0  0  0  0  0  0  0  0999 V2000
   -2.4973   27.3044    5.9055 C   0  0  0  0  0  0  0  0  0  0  0  0
   -3.7704   28.0979    5.5913 C   0  0  1  0  0  0  0  0  0  0  0  0
   -3.4315   29.4182    5.0367 N   0  0  0  0  0  0  0  0  0  0  0  0
   -2.7386   29.6246    3.8460 C   0  0  0  0  0  0  0  0  0  0  0  0
   -2.2237   30.9011    3.5874 C   0  0  0  0  0  0  0  0  0  0  0  0
   -1.5728   31.1864    2.3870 C   0  0  0  0  0  0  0  0  0  0  0  0
   -1.4690   30.1814    1.4449 C   0  0  0  0  0  0  0  0  0  0  0  0
   -1.9750   28.9466    1.6209 N   0  0  0  0  0  0  0  0  0  0  0  0
   -2.6096   28.7104    2.8000 C   0  0  0  0  0  0  0  0  0  0  0  0
   -4.8604   27.3907    4.7965 C   0  0  0  0  0  0  0  0  0  0  0  0
   -5.9871   28.1183    4.3658 C   0  0  0  0  0  0  0  0  0  0  0  0
   -7.0220   27.5040    3.6566 C   0  0  0  0  0  0  0  0  0  0  0  0
   -6.9574   26.1427    3.3733 C   0  0  0  0  0  0  0  0  0  0  0  0
   -5.8589   25.4046    3.8032 C   0  0  0  0  0  0  0  0  0  0  0  0
   -5.7797   23.7185    3.4633 Cl  0  0  0  0  0  0  0  0  0  0  0  0
   -4.8204   26.0155    4.5116 C   0  0  0  0  0  0  0  0  0  0  0  0
  2  1  1  6
  2  3  1  0
  3  4  1  0
  4  5  2  0
  5  6  1  0
  6  7  2  0
  7  8  1  0
  8  9  2  0
  2 10  1  0
 10 11  2  0
 11 12  1  0
 12 13  2  0
 13 14  1  0
 14 15  1  0
 14 16  2  0
  9  4  1  0
 16 10  1  0
M  END
>  <Energy>  (1093) 
55.586168101900299

>  <Energy_Delta>  (1093) 
3.9017056427128196

>  <std_smi>  (1093) 
CC(Nc1cccnc1)c1cccc(Cl)c1

>  <enum_smi>  (1093) 
C[C@@H](Nc1cccnc1)c1cccc(Cl)c1

>  <enum_code>  (1093) 
C

>  <parent_uuid>  (1093) 
85d0fcce-c5b2-415e-8993-f2f147ae328b

>  <o3da_score>  (1093) 
71.503201820816926

>  <o3da_score_rel>  (1093) 
0.2846646355692119

>  <o3da_align>  (1093) 
0.40878864315243663

>  <RMSD>  (1093) 
5.6297083956482256e-05

>  <CONVERGED>  (1093) 
0

>  <ENERGY>  (1093) 
55.586168094385762

$$$$
3f771132-9cd3-4f4e-9c37-f11a9c23c29b
     RDKit          3D

 16 17  0  0  0  0  0  0  0  0999 V2000
   -2.8570   29.1933    3.7128 C   0  0  0  0  0  0  0  0  0  0  0  0
   -3.7528   29.0831    4.9515 C   0  0  1  0  0  0  0  0  0  0  0  0
   -4.6433   27.9177    4.8428 N   0  0  0  0  0  0  0  0  0  0  0  0
   -4.2275   26.5923    4.7486 C   0  0  0  0  0  0  0  0  0  0  0  0
   -2.9821   26.1157    5.1546 C   0  0  0  0  0  0  0  0  0  0  0  0
   -2.6796   24.7532    5.0885 C   0  0  0  0  0  0  0  0  0  0  0  0
   -3.6510   23.8811    4.6335 C   0  0  0  0  0  0  0  0  0  0  0  0
   -4.8821   24.2747    4.2597 N   0  0  0  0  0  0  0  0  0  0  0  0
   -5.1369   25.6047    4.3462 C   0  0  0  0  0  0  0  0  0  0  0  0
   -3.0812   29.1837    6.3152 C   0  0  0  0  0  0  0  0  0  0  0  0
   -1.7340   29.5516    6.4736 C   0  0  0  0  0  0  0  0  0  0  0  0
   -1.1615   29.6597    7.7452 C   0  0  0  0  0  0  0  0  0  0  0  0
   -1.9276   29.4117    8.8820 C   0  0  0  0  0  0  0  0  0  0  0  0
   -3.2663   29.0592    8.7443 C   0  0  0  0  0  0  0  0  0  0  0  0
   -4.2187   28.7602   10.1460 Cl  0  0  0  0  0  0  0  0  0  0  0  0
   -3.8414   28.9511    7.4783 C   0  0  0  0  0  0  0  0  0  0  0  0
  2  1  1  6
  2  3  1  0
  3  4  1  0
  4  5  2  0
  5  6  1  0
  6  7  2  0
  7  8  1  0
  8  9  2  0
  2 10  1  0
 10 11  2  0
 11 12  1  0
 12 13  2  0
 13 14  1  0
 14 15  1  0
 14 16  2  0
  9  4  1  0
 16 10  1  0
M  END
>  <Energy>  (1094) 
56.411234440476875

>  <Energy_Delta>  (1094) 
4.7267719812893958

>  <std_smi>  (1094) 
CC(Nc1cccnc1)c1cccc(Cl)c1

>  <enum_smi>  (1094) 
C[C@@H](Nc1cccnc1)c1cccc(Cl)c1

>  <enum_code>  (1094) 
C

>  <parent_uuid>  (1094) 
85d0fcce-c5b2-415e-8993-f2f147ae328b

>  <o3da_score>  (1094) 
69.683891332989418

>  <o3da_score_rel>  (1094) 
0.27742169617885459

>  <o3da_align>  (1094) 
0.17982578645165131

>  <RMSD>  (1094) 
7.3295005489441389e-05

>  <CONVERGED>  (1094) 
0

>  <ENERGY>  (1094) 
56.411234398236402

$$$$
3f771132-9cd3-4f4e-9c37-f11a9c23c29b
     RDKit          3D

 16 17  0  0  0  0  0  0  0  0999 V2000
   -3.8181   29.7863    6.1481 C   0  0  0  0  0  0  0  0  0  0  0  0
   -3.4680   28.8272    5.0049 C   0  0  1  0  0  0  0  0  0  0  0  0
   -4.6352   28.0088    4.6418 N   0  0  0  0  0  0  0  0  0  0  0  0
   -5.8435   28.5006    4.1552 C   0  0  0  0  0  0  0  0  0  0  0  0
   -6.0142   29.7456    3.5519 C   0  0  0  0  0  0  0  0  0  0  0  0
   -7.2526   30.1244    3.0275 C   0  0  0  0  0  0  0  0  0  0  0  0
   -8.3025   29.2276    3.0963 C   0  0  0  0  0  0  0  0  0  0  0  0
   -8.1920   27.9990    3.6335 N   0  0  0  0  0  0  0  0  0  0  0  0
   -6.9714   27.6692    4.1262 C   0  0  0  0  0  0  0  0  0  0  0  0
   -2.7582   29.4108    3.7897 C   0  0  0  0  0  0  0  0  0  0  0  0
   -2.5347   28.5982    2.6610 C   0  0  0  0  0  0  0  0  0  0  0  0
   -1.8660   29.0850    1.5352 C   0  0  0  0  0  0  0  0  0  0  0  0
   -1.3959   30.3950    1.5190 C   0  0  0  0  0  0  0  0  0  0  0  0
   -1.5958   31.2086    2.6302 C   0  0  0  0  0  0  0  0  0  0  0  0
   -1.0120   32.8283    2.6163 Cl  0  0  0  0  0  0  0  0  0  0  0  0
   -2.2643   30.7257    3.7586 C   0  0  0  0  0  0  0  0  0  0  0  0
  2  1  1  1
  2  3  1  0
  3  4  1  0
  4  5  2  0
  5  6  1  0
  6  7  2  0
  7  8  1  0
  8  9  2  0
  2 10  1  0
 10 11  2  0
 11 12  1  0
 12 13  2  0
 13 14  1  0
 14 15  1  0
 14 16  2  0
  9  4  1  0
 16 10  1  0
M  END
>  <Energy>  (1095) 
57.160451937258507

>  <Energy_Delta>  (1095) 
5.4759894780710283

>  <std_smi>  (1095) 
CC(Nc1cccnc1)c1cccc(Cl)c1

>  <enum_smi>  (1095) 
C[C@@H](Nc1cccnc1)c1cccc(Cl)c1

>  <enum_code>  (1095) 
C

>  <parent_uuid>  (1095) 
85d0fcce-c5b2-415e-8993-f2f147ae328b

>  <o3da_score>  (1095) 
70.246088007429776

>  <o3da_score_rel>  (1095) 
0.27965988282466153

>  <o3da_align>  (1095) 
0.34719560802650878

>  <RMSD>  (1095) 
0.22146277507590398

>  <CONVERGED>  (1095) 
0

>  <ENERGY>  (1095) 
56.363561196037935

$$$$
3f771132-9cd3-4f4e-9c37-f11a9c23c29b
     RDKit          3D

 16 17  0  0  0  0  0  0  0  0999 V2000
   -4.6525   27.8414    4.7010 C   0  0  0  0  0  0  0  0  0  0  0  0
   -3.4864   28.7924    4.9739 C   0  0  1  0  0  0  0  0  0  0  0  0
   -2.5236   28.2833    5.9755 N   0  0  0  0  0  0  0  0  0  0  0  0
   -1.8124   27.1099    5.6787 C   0  0  0  0  0  0  0  0  0  0  0  0
   -0.5097   27.1664    5.1774 C   0  0  0  0  0  0  0  0  0  0  0  0
    0.1609   25.9945    4.8306 C   0  0  0  0  0  0  0  0  0  0  0  0
   -0.4970   24.7874    4.9931 C   0  0  0  0  0  0  0  0  0  0  0  0
   -1.7530   24.6793    5.4714 N   0  0  0  0  0  0  0  0  0  0  0  0
   -2.3735   25.8387    5.8020 C   0  0  0  0  0  0  0  0  0  0  0  0
   -2.7741   29.3154    3.7346 C   0  0  0  0  0  0  0  0  0  0  0  0
   -2.3442   30.6546    3.6972 C   0  0  0  0  0  0  0  0  0  0  0  0
   -1.6662   31.1611    2.5858 C   0  0  0  0  0  0  0  0  0  0  0  0
   -1.3984   30.3342    1.4969 C   0  0  0  0  0  0  0  0  0  0  0  0
   -1.8073   29.0036    1.5256 C   0  0  0  0  0  0  0  0  0  0  0  0
   -1.4601   27.9767    0.1889 Cl  0  0  0  0  0  0  0  0  0  0  0  0
   -2.4888   28.4935    2.6315 C   0  0  0  0  0  0  0  0  0  0  0  0
  2  1  1  6
  2  3  1  0
  3  4  1  0
  4  5  2  0
  5  6  1  0
  6  7  2  0
  7  8  1  0
  8  9  2  0
  2 10  1  0
 10 11  2  0
 11 12  1  0
 12 13  2  0
 13 14  1  0
 14 15  1  0
 14 16  2  0
  9  4  1  0
 16 10  1  0
M  END
>  <Energy>  (1096) 
57.245746923701631

>  <Energy_Delta>  (1096) 
5.5612844645141521

>  <std_smi>  (1096) 
CC(Nc1cccnc1)c1cccc(Cl)c1

>  <enum_smi>  (1096) 
C[C@@H](Nc1cccnc1)c1cccc(Cl)c1

>  <enum_code>  (1096) 
C

>  <parent_uuid>  (1096) 
85d0fcce-c5b2-415e-8993-f2f147ae328b

>  <o3da_score>  (1096) 
68.039385358105875

>  <o3da_score_rel>  (1096) 
0.27087467895290257

>  <o3da_align>  (1096) 
0.38570521439417699

>  <RMSD>  (1096) 
7.0329843847345987e-05

>  <CONVERGED>  (1096) 
0

>  <ENERGY>  (1096) 
57.245746823286467

$$$$
12f9c9bf-882a-431e-a73e-8bf4b8904ee0
     RDKit          3D

 16 17  0  0  0  0  0  0  0  0999 V2000
   -4.6327   28.3459    6.9539 C   0  0  0  0  0  0  0  0  0  0  0  0
   -4.5243   28.0832    5.4512 C   0  0  0  0  0  0  0  0  0  0  0  0
   -3.4893   29.0435    4.8896 N   0  0  0  0  0  4  0  0  0  0  0  0
   -3.4228   29.0516    3.4194 C   0  0  0  0  0  0  0  0  0  0  0  0
   -4.2663   29.9025    2.7092 C   0  0  0  0  0  0  0  0  0  0  0  0
   -4.2190   29.9102    1.3121 C   0  0  0  0  0  0  0  0  0  0  0  0
   -3.3304   29.0712    0.6444 C   0  0  0  0  0  0  0  0  0  0  0  0
   -2.5218   28.2641    1.3539 N   0  0  0  0  0  4  0  0  0  0  0  0
   -2.5336   28.2314    2.7028 C   0  0  0  0  0  0  0  0  0  0  0  0
   -4.1867   26.6461    5.1092 C   0  0  0  0  0  0  0  0  0  0  0  0
   -3.1394   25.9512    5.7384 C   0  0  0  0  0  0  0  0  0  0  0  0
   -2.8162   24.6475    5.3503 C   0  0  0  0  0  0  0  0  0  0  0  0
   -3.5220   24.0231    4.3230 C   0  0  0  0  0  0  0  0  0  0  0  0
   -4.5612   24.6988    3.6948 C   0  0  0  0  0  0  0  0  0  0  0  0
   -5.4101   23.9625    2.3970 Cl  0  0  0  0  0  0  0  0  0  0  0  0
   -4.9006   25.9958    4.0856 C   0  0  0  0  0  0  0  0  0  0  0  0
  1  2  1  0
  2  3  1  0
  3  4  1  0
  4  5  2  0
  5  6  1  0
  6  7  2  0
  7  8  1  0
  8  9  2  0
  2 10  1  0
 10 11  2  0
 11 12  1  0
 12 13  2  0
 13 14  1  0
 14 15  1  0
 14 16  2  0
  9  4  1  0
 16 10  1  0
M  CHG  2   3   1   8   1
M  END
>  <Energy>  (1097) 
130.31933163908485

>  <Energy_Delta>  (1097) 
0

>  <std_smi>  (1097) 
CC(Nc1cccnc1)c1cccc(Cl)c1

>  <enum_smi>  (1097) 
CC([NH2+]c1ccc[nH+]c1)c1cccc(Cl)c1

>  <enum_code>  (1097) 
M

>  <parent_uuid>  (1097) 
85d0fcce-c5b2-415e-8993-f2f147ae328b

>  <o3da_score>  (1097) 
62.827009933753544

>  <o3da_score_rel>  (1097) 
0.25012345505188843

>  <o3da_align>  (1097) 
0.54637268336061351

>  <RMSD>  (1097) 
6.8846435189409883e-05

>  <CONVERGED>  (1097) 
0

>  <ENERGY>  (1097) 
130.31933153493355

$$$$
12f9c9bf-882a-431e-a73e-8bf4b8904ee0
     RDKit          3D

 16 17  0  0  0  0  0  0  0  0999 V2000
   -6.2419   28.3217    5.3045 C   0  0  0  0  0  0  0  0  0  0  0  0
   -4.7630   28.1230    4.9698 C   0  0  0  0  0  0  0  0  0  0  0  0
   -4.4571   28.9460    3.7297 N   0  0  0  0  0  4  0  0  0  0  0  0
   -3.0237   29.0193    3.4042 C   0  0  0  0  0  0  0  0  0  0  0  0
   -2.2493   30.0214    3.9837 C   0  0  0  0  0  0  0  0  0  0  0  0
   -0.8845   30.0935    3.6900 C   0  0  0  0  0  0  0  0  0  0  0  0
   -0.3129   29.1668    2.8216 C   0  0  0  0  0  0  0  0  0  0  0  0
   -1.0842   28.2131    2.2700 N   0  0  0  0  0  4  0  0  0  0  0  0
   -2.4056   28.1136    2.5241 C   0  0  0  0  0  0  0  0  0  0  0  0
   -4.3738   26.6710    4.7783 C   0  0  0  0  0  0  0  0  0  0  0  0
   -5.1147   25.7967    3.9643 C   0  0  0  0  0  0  0  0  0  0  0  0
   -4.6880   24.4810    3.7604 C   0  0  0  0  0  0  0  0  0  0  0  0
   -3.5127   24.0220    4.3529 C   0  0  0  0  0  0  0  0  0  0  0  0
   -2.7728   24.8760    5.1618 C   0  0  0  0  0  0  0  0  0  0  0  0
   -1.2990   24.3416    5.8614 Cl  0  0  0  0  0  0  0  0  0  0  0  0
   -3.1988   26.1873    5.3830 C   0  0  0  0  0  0  0  0  0  0  0  0
  1  2  1  0
  2  3  1  0
  3  4  1  0
  4  5  2  0
  5  6  1  0
  6  7  2  0
  7  8  1  0
  8  9  2  0
  2 10  1  0
 10 11  2  0
 11 12  1  0
 12 13  2  0
 13 14  1  0
 14 15  1  0
 14 16  2  0
  9  4  1  0
 16 10  1  0
M  CHG  2   3   1   8   1
M  END
>  <Energy>  (1098) 
130.31933164770601

>  <Energy_Delta>  (1098) 
8.6211571215244476e-09

>  <std_smi>  (1098) 
CC(Nc1cccnc1)c1cccc(Cl)c1

>  <enum_smi>  (1098) 
CC([NH2+]c1ccc[nH+]c1)c1cccc(Cl)c1

>  <enum_code>  (1098) 
M

>  <parent_uuid>  (1098) 
85d0fcce-c5b2-415e-8993-f2f147ae328b

>  <o3da_score>  (1098) 
73.991494854997327

>  <o3da_score_rel>  (1098) 
0.29457089167700701

>  <o3da_align>  (1098) 
0.43153221584624701

>  <RMSD>  (1098) 
7.3267856460913246e-05

>  <CONVERGED>  (1098) 
0

>  <ENERGY>  (1098) 
130.31933154261421

$$$$
12f9c9bf-882a-431e-a73e-8bf4b8904ee0
     RDKit          3D

 16 17  0  0  0  0  0  0  0  0999 V2000
   -5.9208   28.1968    6.0701 C   0  0  0  0  0  0  0  0  0  0  0  0
   -4.7011   28.0348    5.1626 C   0  0  0  0  0  0  0  0  0  0  0  0
   -5.0049   28.7385    3.8512 N   0  0  0  0  0  4  0  0  0  0  0  0
   -3.8605   28.7950    2.9279 C   0  0  0  0  0  0  0  0  0  0  0  0
   -2.9554   29.8480    3.0364 C   0  0  0  0  0  0  0  0  0  0  0  0
   -1.8681   29.9146    2.1603 C   0  0  0  0  0  0  0  0  0  0  0  0
   -1.7016   28.9321    1.1873 C   0  0  0  0  0  0  0  0  0  0  0  0
   -2.5930   27.9290    1.1001 N   0  0  0  0  0  4  0  0  0  0  0  0
   -3.6564   27.8315    1.9249 C   0  0  0  0  0  0  0  0  0  0  0  0
   -4.3159   26.5851    4.9520 C   0  0  0  0  0  0  0  0  0  0  0  0
   -3.0119   26.1576    5.2576 C   0  0  0  0  0  0  0  0  0  0  0  0
   -2.6234   24.8345    5.0320 C   0  0  0  0  0  0  0  0  0  0  0  0
   -3.5267   23.9204    4.4927 C   0  0  0  0  0  0  0  0  0  0  0  0
   -4.8214   24.3289    4.1937 C   0  0  0  0  0  0  0  0  0  0  0  0
   -5.9359   23.2216    3.5013 Cl  0  0  0  0  0  0  0  0  0  0  0  0
   -5.2219   25.6476    4.4247 C   0  0  0  0  0  0  0  0  0  0  0  0
  1  2  1  0
  2  3  1  0
  3  4  1  0
  4  5  2  0
  5  6  1  0
  6  7  2  0
  7  8  1  0
  8  9  2  0
  2 10  1  0
 10 11  2  0
 11 12  1  0
 12 13  2  0
 13 14  1  0
 14 15  1  0
 14 16  2  0
  9  4  1  0
 16 10  1  0
M  CHG  2   3   1   8   1
M  END
>  <Energy>  (1099) 
130.83374585772341

>  <Energy_Delta>  (1099) 
0.51441421863856363

>  <std_smi>  (1099) 
CC(Nc1cccnc1)c1cccc(Cl)c1

>  <enum_smi>  (1099) 
CC([NH2+]c1ccc[nH+]c1)c1cccc(Cl)c1

>  <enum_code>  (1099) 
M

>  <parent_uuid>  (1099) 
85d0fcce-c5b2-415e-8993-f2f147ae328b

>  <o3da_score>  (1099) 
71.346715452757437

>  <o3da_score_rel>  (1099) 
0.28404164060114273

>  <o3da_align>  (1099) 
0.57658934221626723

>  <RMSD>  (1099) 
6.9769114447056259e-05

>  <CONVERGED>  (1099) 
0

>  <ENERGY>  (1099) 
130.83374579291885

$$$$
12f9c9bf-882a-431e-a73e-8bf4b8904ee0
     RDKit          3D

 16 17  0  0  0  0  0  0  0  0999 V2000
   -4.7950   28.3039    6.8731 C   0  0  0  0  0  0  0  0  0  0  0  0
   -4.6135   28.1064    5.3679 C   0  0  0  0  0  0  0  0  0  0  0  0
   -3.5724   29.1056    4.8936 N   0  0  0  0  0  4  0  0  0  0  0  0
   -3.3993   29.1354    3.4327 C   0  0  0  0  0  0  0  0  0  0  0  0
   -4.2253   29.9580    2.6704 C   0  0  0  0  0  0  0  0  0  0  0  0
   -4.0652   29.9985    1.2822 C   0  0  0  0  0  0  0  0  0  0  0  0
   -3.0820   29.2208    0.6756 C   0  0  0  0  0  0  0  0  0  0  0  0
   -2.2940   28.4392    1.4349 N   0  0  0  0  0  4  0  0  0  0  0  0
   -2.4154   28.3750    2.7772 C   0  0  0  0  0  0  0  0  0  0  0  0
   -4.2408   26.6840    5.0043 C   0  0  0  0  0  0  0  0  0  0  0  0
   -5.0282   25.9693    4.0846 C   0  0  0  0  0  0  0  0  0  0  0  0
   -4.6791   24.6710    3.7038 C   0  0  0  0  0  0  0  0  0  0  0  0
   -3.5371   24.0691    4.2290 C   0  0  0  0  0  0  0  0  0  0  0  0
   -2.7546   24.7624    5.1452 C   0  0  0  0  0  0  0  0  0  0  0  0
   -1.3289   24.0450    5.7776 Cl  0  0  0  0  0  0  0  0  0  0  0  0
   -3.1010   26.0576    5.5392 C   0  0  0  0  0  0  0  0  0  0  0  0
  1  2  1  0
  2  3  1  0
  3  4  1  0
  4  5  2  0
  5  6  1  0
  6  7  2  0
  7  8  1  0
  8  9  2  0
  2 10  1  0
 10 11  2  0
 11 12  1  0
 12 13  2  0
 13 14  1  0
 14 15  1  0
 14 16  2  0
  9  4  1  0
 16 10  1  0
M  CHG  2   3   1   8   1
M  END
>  <Energy>  (1100) 
130.83374610220358

>  <Energy_Delta>  (1100) 
0.51441446311872596

>  <std_smi>  (1100) 
CC(Nc1cccnc1)c1cccc(Cl)c1

>  <enum_smi>  (1100) 
CC([NH2+]c1ccc[nH+]c1)c1cccc(Cl)c1

>  <enum_code>  (1100) 
M

>  <parent_uuid>  (1100) 
85d0fcce-c5b2-415e-8993-f2f147ae328b

>  <o3da_score>  (1100) 
73.65220285668407

>  <o3da_score_rel>  (1100) 
0.29322012093399291

>  <o3da_align>  (1100) 
0.43326865103132617

>  <RMSD>  (1100) 
7.9535380248942552e-05

>  <CONVERGED>  (1100) 
0

>  <ENERGY>  (1100) 
130.83374579125905

$$$$
12f9c9bf-882a-431e-a73e-8bf4b8904ee0
     RDKit          3D

 16 17  0  0  0  0  0  0  0  0999 V2000
   -5.5552   28.9134    3.2490 C   0  0  0  0  0  0  0  0  0  0  0  0
   -4.3809   29.0727    4.2170 C   0  0  0  0  0  0  0  0  0  0  0  0
   -4.4493   28.0044    5.2974 N   0  0  0  0  0  4  0  0  0  0  0  0
   -4.1171   26.6335    4.8741 C   0  0  0  0  0  0  0  0  0  0  0  0
   -5.1458   25.7652    4.5161 C   0  0  0  0  0  0  0  0  0  0  0  0
   -4.8417   24.4595    4.1193 C   0  0  0  0  0  0  0  0  0  0  0  0
   -3.5160   24.0350    4.0938 C   0  0  0  0  0  0  0  0  0  0  0  0
   -2.5418   24.8863    4.4604 N   0  0  0  0  0  4  0  0  0  0  0  0
   -2.7960   26.1513    4.8547 C   0  0  0  0  0  0  0  0  0  0  0  0
   -3.0030   29.1628    3.5922 C   0  0  0  0  0  0  0  0  0  0  0  0
   -1.9906   29.8805    4.2563 C   0  0  0  0  0  0  0  0  0  0  0  0
   -0.6926   29.9318    3.7406 C   0  0  0  0  0  0  0  0  0  0  0  0
   -0.3793   29.2591    2.5615 C   0  0  0  0  0  0  0  0  0  0  0  0
   -1.3700   28.5503    1.8926 C   0  0  0  0  0  0  0  0  0  0  0  0
   -0.9890   27.6733    0.4663 Cl  0  0  0  0  0  0  0  0  0  0  0  0
   -2.6742   28.5064    2.3930 C   0  0  0  0  0  0  0  0  0  0  0  0
  1  2  1  0
  2  3  1  0
  3  4  1  0
  4  5  2  0
  5  6  1  0
  6  7  2  0
  7  8  1  0
  8  9  2  0
  2 10  1  0
 10 11  2  0
 11 12  1  0
 12 13  2  0
 13 14  1  0
 14 15  1  0
 14 16  2  0
  9  4  1  0
 16 10  1  0
M  CHG  2   3   1   8   1
M  END
>  <Energy>  (1101) 
132.1919643668781

>  <Energy_Delta>  (1101) 
1.8726327277932455

>  <std_smi>  (1101) 
CC(Nc1cccnc1)c1cccc(Cl)c1

>  <enum_smi>  (1101) 
CC([NH2+]c1ccc[nH+]c1)c1cccc(Cl)c1

>  <enum_code>  (1101) 
M

>  <parent_uuid>  (1101) 
85d0fcce-c5b2-415e-8993-f2f147ae328b

>  <o3da_score>  (1101) 
74.738509407550893

>  <o3da_score_rel>  (1101) 
0.29754486514885858

>  <o3da_align>  (1101) 
0.6302388750451926

>  <RMSD>  (1101) 
0.00013734110475111726

>  <CONVERGED>  (1101) 
0

>  <ENERGY>  (1101) 
132.19196432355923

$$$$
12f9c9bf-882a-431e-a73e-8bf4b8904ee0
     RDKit          3D

 16 17  0  0  0  0  0  0  0  0999 V2000
   -6.2790   28.3081    5.3843 C   0  0  0  0  0  0  0  0  0  0  0  0
   -4.8049   28.1685    5.0008 C   0  0  0  0  0  0  0  0  0  0  0  0
   -4.5643   29.0379    3.7793 N   0  0  0  0  0  4  0  0  0  0  0  0
   -3.1561   29.1174    3.3567 C   0  0  0  0  0  0  0  0  0  0  0  0
   -2.7243   28.3291    2.2913 C   0  0  0  0  0  0  0  0  0  0  0  0
   -1.3905   28.3919    1.8794 C   0  0  0  0  0  0  0  0  0  0  0  0
   -0.5075   29.2480    2.5297 C   0  0  0  0  0  0  0  0  0  0  0  0
   -0.9505   30.0084    3.5473 N   0  0  0  0  0  4  0  0  0  0  0  0
   -2.2306   29.9735    3.9752 C   0  0  0  0  0  0  0  0  0  0  0  0
   -4.3761   26.7345    4.7736 C   0  0  0  0  0  0  0  0  0  0  0  0
   -5.0952   25.8604    3.9402 C   0  0  0  0  0  0  0  0  0  0  0  0
   -4.6370   24.5600    3.7075 C   0  0  0  0  0  0  0  0  0  0  0  0
   -3.4528   24.1152    4.2930 C   0  0  0  0  0  0  0  0  0  0  0  0
   -2.7350   24.9686    5.1217 C   0  0  0  0  0  0  0  0  0  0  0  0
   -1.2583   24.4495    5.8286 Cl  0  0  0  0  0  0  0  0  0  0  0  0
   -3.1914   26.2652    5.3695 C   0  0  0  0  0  0  0  0  0  0  0  0
  1  2  1  0
  2  3  1  0
  3  4  1  0
  4  5  2  0
  5  6  1  0
  6  7  2  0
  7  8  1  0
  8  9  2  0
  2 10  1  0
 10 11  2  0
 11 12  1  0
 12 13  2  0
 13 14  1  0
 14 15  1  0
 14 16  2  0
  9  4  1  0
 16 10  1  0
M  CHG  2   3   1   8   1
M  END
>  <Energy>  (1102) 
132.8729720751104

>  <Energy_Delta>  (1102) 
2.553640436025546

>  <std_smi>  (1102) 
CC(Nc1cccnc1)c1cccc(Cl)c1

>  <enum_smi>  (1102) 
CC([NH2+]c1ccc[nH+]c1)c1cccc(Cl)c1

>  <enum_code>  (1102) 
M

>  <parent_uuid>  (1102) 
85d0fcce-c5b2-415e-8993-f2f147ae328b

>  <o3da_score>  (1102) 
77.143721251654753

>  <o3da_score_rel>  (1102) 
0.30712036296760442

>  <o3da_align>  (1102) 
0.5336783201249149

>  <RMSD>  (1102) 
8.3797262596777802e-05

>  <CONVERGED>  (1102) 
0

>  <ENERGY>  (1102) 
132.87297201033974

$$$$
12f9c9bf-882a-431e-a73e-8bf4b8904ee0
     RDKit          3D

 16 17  0  0  0  0  0  0  0  0999 V2000
   -4.2138   30.3983    5.2651 C   0  0  0  0  0  0  0  0  0  0  0  0
   -3.6844   29.0551    4.7600 C   0  0  0  0  0  0  0  0  0  0  0  0
   -4.6722   27.9833    5.1857 N   0  0  0  0  0  4  0  0  0  0  0  0
   -4.2428   26.6069    4.8874 C   0  0  0  0  0  0  0  0  0  0  0  0
   -4.7605   25.9657    3.7631 C   0  0  0  0  0  0  0  0  0  0  0  0
   -4.3616   24.6601    3.4654 C   0  0  0  0  0  0  0  0  0  0  0  0
   -3.4588   24.0078    4.2991 C   0  0  0  0  0  0  0  0  0  0  0  0
   -2.9825   24.6426    5.3853 N   0  0  0  0  0  4  0  0  0  0  0  0
   -3.3424   25.9042    5.7043 C   0  0  0  0  0  0  0  0  0  0  0  0
   -3.4266   29.0330    3.2684 C   0  0  0  0  0  0  0  0  0  0  0  0
   -4.3849   29.4666    2.3358 C   0  0  0  0  0  0  0  0  0  0  0  0
   -4.1342   29.3771    0.9631 C   0  0  0  0  0  0  0  0  0  0  0  0
   -2.9313   28.8465    0.4999 C   0  0  0  0  0  0  0  0  0  0  0  0
   -1.9747   28.4181    1.4119 C   0  0  0  0  0  0  0  0  0  0  0  0
   -0.4987   27.7341    0.8612 Cl  0  0  0  0  0  0  0  0  0  0  0  0
   -2.2114   28.5149    2.7850 C   0  0  0  0  0  0  0  0  0  0  0  0
  1  2  1  0
  2  3  1  0
  3  4  1  0
  4  5  2  0
  5  6  1  0
  6  7  2  0
  7  8  1  0
  8  9  2  0
  2 10  1  0
 10 11  2  0
 11 12  1  0
 12 13  2  0
 13 14  1  0
 14 15  1  0
 14 16  2  0
  9  4  1  0
 16 10  1  0
M  CHG  2   3   1   8   1
M  END
>  <Energy>  (1103) 
132.87297210927269

>  <Energy_Delta>  (1103) 
2.5536404701878439

>  <std_smi>  (1103) 
CC(Nc1cccnc1)c1cccc(Cl)c1

>  <enum_smi>  (1103) 
CC([NH2+]c1ccc[nH+]c1)c1cccc(Cl)c1

>  <enum_code>  (1103) 
M

>  <parent_uuid>  (1103) 
85d0fcce-c5b2-415e-8993-f2f147ae328b

>  <o3da_score>  (1103) 
74.610402118848043

>  <o3da_score_rel>  (1103) 
0.29703485141907143

>  <o3da_align>  (1103) 
0.53028678541066077

>  <RMSD>  (1103) 
0.00014239119249372892

>  <CONVERGED>  (1103) 
0

>  <ENERGY>  (1103) 
132.87297219107307

$$$$
12f9c9bf-882a-431e-a73e-8bf4b8904ee0
     RDKit          3D

 16 17  0  0  0  0  0  0  0  0999 V2000
   -4.1281   30.3815    5.1560 C   0  0  0  0  0  0  0  0  0  0  0  0
   -3.6486   28.9999    4.7094 C   0  0  0  0  0  0  0  0  0  0  0  0
   -4.6055   27.9725    5.2872 N   0  0  0  0  0  4  0  0  0  0  0  0
   -4.2416   26.5736    5.0087 C   0  0  0  0  0  0  0  0  0  0  0  0
   -4.9286   25.8816    4.0125 C   0  0  0  0  0  0  0  0  0  0  0  0
   -4.6043   24.5490    3.7450 C   0  0  0  0  0  0  0  0  0  0  0  0
   -3.6058   23.9211    4.4825 C   0  0  0  0  0  0  0  0  0  0  0  0
   -2.9649   24.6057    5.4469 N   0  0  0  0  0  4  0  0  0  0  0  0
   -3.2480   25.8947    5.7320 C   0  0  0  0  0  0  0  0  0  0  0  0
   -3.5100   28.8942    3.2062 C   0  0  0  0  0  0  0  0  0  0  0  0
   -2.2650   28.5735    2.6374 C   0  0  0  0  0  0  0  0  0  0  0  0
   -2.1257   28.4406    1.2531 C   0  0  0  0  0  0  0  0  0  0  0  0
   -3.2254   28.6221    0.4165 C   0  0  0  0  0  0  0  0  0  0  0  0
   -4.4593   28.9503    0.9656 C   0  0  0  0  0  0  0  0  0  0  0  0
   -5.8265   29.1625   -0.0515 Cl  0  0  0  0  0  0  0  0  0  0  0  0
   -4.6059   29.0940    2.3477 C   0  0  0  0  0  0  0  0  0  0  0  0
  1  2  1  0
  2  3  1  0
  3  4  1  0
  4  5  2  0
  5  6  1  0
  6  7  2  0
  7  8  1  0
  8  9  2  0
  2 10  1  0
 10 11  2  0
 11 12  1  0
 12 13  2  0
 13 14  1  0
 14 15  1  0
 14 16  2  0
  9  4  1  0
 16 10  1  0
M  CHG  2   3   1   8   1
M  END
>  <Energy>  (1104) 
133.60834307046818

>  <Energy_Delta>  (1104) 
3.2890114313833294

>  <std_smi>  (1104) 
CC(Nc1cccnc1)c1cccc(Cl)c1

>  <enum_smi>  (1104) 
CC([NH2+]c1ccc[nH+]c1)c1cccc(Cl)c1

>  <enum_code>  (1104) 
M

>  <parent_uuid>  (1104) 
85d0fcce-c5b2-415e-8993-f2f147ae328b

>  <o3da_score>  (1104) 
74.623800984426495

>  <o3da_score_rel>  (1104) 
0.2970881942497392

>  <o3da_align>  (1104) 
0.47416996436697589

>  <RMSD>  (1104) 
0.00026742531085241478

>  <CONVERGED>  (1104) 
0

>  <ENERGY>  (1104) 
133.60834308419791

$$$$
12f9c9bf-882a-431e-a73e-8bf4b8904ee0
     RDKit          3D

 16 17  0  0  0  0  0  0  0  0999 V2000
   -5.9143   28.4368    5.1726 C   0  0  0  0  0  0  0  0  0  0  0  0
   -4.6072   28.0423    4.4841 C   0  0  0  0  0  0  0  0  0  0  0  0
   -4.6967   28.4910    3.0365 N   0  0  0  0  0  4  0  0  0  0  0  0
   -3.4793   28.2492    2.2451 C   0  0  0  0  0  0  0  0  0  0  0  0
   -3.4498   27.1713    1.3617 C   0  0  0  0  0  0  0  0  0  0  0  0
   -2.3066   26.9361    0.5935 C   0  0  0  0  0  0  0  0  0  0  0  0
   -1.2115   27.7861    0.7091 C   0  0  0  0  0  0  0  0  0  0  0  0
   -1.2677   28.8269    1.5595 N   0  0  0  0  0  4  0  0  0  0  0  0
   -2.3530   29.0843    2.3203 C   0  0  0  0  0  0  0  0  0  0  0  0
   -4.3024   26.5667    4.6244 C   0  0  0  0  0  0  0  0  0  0  0  0
   -3.1107   26.1525    5.2447 C   0  0  0  0  0  0  0  0  0  0  0  0
   -2.7980   24.7947    5.3547 C   0  0  0  0  0  0  0  0  0  0  0  0
   -3.6664   23.8310    4.8456 C   0  0  0  0  0  0  0  0  0  0  0  0
   -4.8530   24.2271    4.2400 C   0  0  0  0  0  0  0  0  0  0  0  0
   -5.9259   23.0517    3.5948 Cl  0  0  0  0  0  0  0  0  0  0  0  0
   -5.1782   25.5818    4.1334 C   0  0  0  0  0  0  0  0  0  0  0  0
  1  2  1  0
  2  3  1  0
  3  4  1  0
  4  5  2  0
  5  6  1  0
  6  7  2  0
  7  8  1  0
  8  9  2  0
  2 10  1  0
 10 11  2  0
 11 12  1  0
 12 13  2  0
 13 14  1  0
 14 15  1  0
 14 16  2  0
  9  4  1  0
 16 10  1  0
M  CHG  2   3   1   8   1
M  END
>  <Energy>  (1105) 
133.60834321762309

>  <Energy_Delta>  (1105) 
3.2890115785382363

>  <std_smi>  (1105) 
CC(Nc1cccnc1)c1cccc(Cl)c1

>  <enum_smi>  (1105) 
CC([NH2+]c1ccc[nH+]c1)c1cccc(Cl)c1

>  <enum_code>  (1105) 
M

>  <parent_uuid>  (1105) 
85d0fcce-c5b2-415e-8993-f2f147ae328b

>  <o3da_score>  (1105) 
69.208890016086528

>  <o3da_score_rel>  (1105) 
0.27553064692053048

>  <o3da_align>  (1105) 
0.3699365855186979

>  <RMSD>  (1105) 
8.3984953847473324e-05

>  <CONVERGED>  (1105) 
0

>  <ENERGY>  (1105) 
133.60834284596427

$$$$
12f9c9bf-882a-431e-a73e-8bf4b8904ee0
     RDKit          3D

 16 17  0  0  0  0  0  0  0  0999 V2000
   -2.8066   27.6901    5.6794 C   0  0  0  0  0  0  0  0  0  0  0  0
   -3.5379   28.7853    4.9014 C   0  0  0  0  0  0  0  0  0  0  0  0
   -4.8610   28.2582    4.3857 N   0  0  0  0  0  4  0  0  0  0  0  0
   -5.8834   28.0231    5.4098 C   0  0  0  0  0  0  0  0  0  0  0  0
   -6.6171   29.1037    5.8947 C   0  0  0  0  0  0  0  0  0  0  0  0
   -7.6157   28.8880    6.8486 C   0  0  0  0  0  0  0  0  0  0  0  0
   -7.8742   27.5962    7.2988 C   0  0  0  0  0  0  0  0  0  0  0  0
   -7.1584   26.5684    6.8079 N   0  0  0  0  0  4  0  0  0  0  0  0
   -6.1859   26.7369    5.8869 C   0  0  0  0  0  0  0  0  0  0  0  0
   -2.7346   29.3218    3.7346 C   0  0  0  0  0  0  0  0  0  0  0  0
   -2.6116   30.7103    3.5517 C   0  0  0  0  0  0  0  0  0  0  0  0
   -1.9087   31.2278    2.4599 C   0  0  0  0  0  0  0  0  0  0  0  0
   -1.3240   30.3700    1.5303 C   0  0  0  0  0  0  0  0  0  0  0  0
   -1.4402   28.9955    1.6978 C   0  0  0  0  0  0  0  0  0  0  0  0
   -0.7356   27.9241    0.5546 Cl  0  0  0  0  0  0  0  0  0  0  0  0
   -2.1393   28.4689    2.7880 C   0  0  0  0  0  0  0  0  0  0  0  0
  1  2  1  0
  2  3  1  0
  3  4  1  0
  4  5  2  0
  5  6  1  0
  6  7  2  0
  7  8  1  0
  8  9  2  0
  2 10  1  0
 10 11  2  0
 11 12  1  0
 12 13  2  0
 13 14  1  0
 14 15  1  0
 14 16  2  0
  9  4  1  0
 16 10  1  0
M  CHG  2   3   1   8   1
M  END
>  <Energy>  (1106) 
134.80506056995867

>  <Energy_Delta>  (1106) 
4.4857289308738189

>  <std_smi>  (1106) 
CC(Nc1cccnc1)c1cccc(Cl)c1

>  <enum_smi>  (1106) 
CC([NH2+]c1ccc[nH+]c1)c1cccc(Cl)c1

>  <enum_code>  (1106) 
M

>  <parent_uuid>  (1106) 
85d0fcce-c5b2-415e-8993-f2f147ae328b

>  <o3da_score>  (1106) 
64.788248753493718

>  <o3da_score_rel>  (1106) 
0.25793143175319178

>  <o3da_align>  (1106) 
0.45375077479954001

>  <RMSD>  (1106) 
6.7885268312671687e-05

>  <CONVERGED>  (1106) 
0

>  <ENERGY>  (1106) 
134.80506052120671

$$$$
12f9c9bf-882a-431e-a73e-8bf4b8904ee0
     RDKit          3D

 16 17  0  0  0  0  0  0  0  0999 V2000
   -3.3210   27.1971    2.9461 C   0  0  0  0  0  0  0  0  0  0  0  0
   -4.0637   26.8286    4.2315 C   0  0  0  0  0  0  0  0  0  0  0  0
   -3.1486   26.0482    5.1525 N   0  0  0  0  0  4  0  0  0  0  0  0
   -2.8265   24.6881    4.7100 C   0  0  0  0  0  0  0  0  0  0  0  0
   -3.7506   23.6685    4.9282 C   0  0  0  0  0  0  0  0  0  0  0  0
   -3.4422   22.3621    4.5387 C   0  0  0  0  0  0  0  0  0  0  0  0
   -2.2126   22.0897    3.9451 C   0  0  0  0  0  0  0  0  0  0  0  0
   -1.3337   23.0900    3.7541 N   0  0  0  0  0  4  0  0  0  0  0  0
   -1.5955   24.3640    4.1158 C   0  0  0  0  0  0  0  0  0  0  0  0
   -4.5967   28.0353    4.9759 C   0  0  0  0  0  0  0  0  0  0  0  0
   -5.9260   28.0420    5.4335 C   0  0  0  0  0  0  0  0  0  0  0  0
   -6.4273   29.1279    6.1570 C   0  0  0  0  0  0  0  0  0  0  0  0
   -5.6099   30.2200    6.4415 C   0  0  0  0  0  0  0  0  0  0  0  0
   -4.2933   30.2251    5.9973 C   0  0  0  0  0  0  0  0  0  0  0  0
   -3.2687   31.5582    6.3498 Cl  0  0  0  0  0  0  0  0  0  0  0  0
   -3.7840   29.1446    5.2710 C   0  0  0  0  0  0  0  0  0  0  0  0
  1  2  1  0
  2  3  1  0
  3  4  1  0
  4  5  2  0
  5  6  1  0
  6  7  2  0
  7  8  1  0
  8  9  2  0
  2 10  1  0
 10 11  2  0
 11 12  1  0
 12 13  2  0
 13 14  1  0
 14 15  1  0
 14 16  2  0
  9  4  1  0
 16 10  1  0
M  CHG  2   3   1   8   1
M  END
>  <Energy>  (1107) 
134.80506063546457

>  <Energy_Delta>  (1107) 
4.48572899637972

>  <std_smi>  (1107) 
CC(Nc1cccnc1)c1cccc(Cl)c1

>  <enum_smi>  (1107) 
CC([NH2+]c1ccc[nH+]c1)c1cccc(Cl)c1

>  <enum_code>  (1107) 
M

>  <parent_uuid>  (1107) 
85d0fcce-c5b2-415e-8993-f2f147ae328b

>  <o3da_score>  (1107) 
60.711135848760279

>  <o3da_score_rel>  (1107) 
0.24169985289174581

>  <o3da_align>  (1107) 
0.47455794380141375

>  <RMSD>  (1107) 
7.7581713370455523e-05

>  <CONVERGED>  (1107) 
0

>  <ENERGY>  (1107) 
134.80506057925624

$$$$
12f9c9bf-882a-431e-a73e-8bf4b8904ee0
     RDKit          3D

 16 17  0  0  0  0  0  0  0  0999 V2000
   -2.9226   27.4131    5.4950 C   0  0  0  0  0  0  0  0  0  0  0  0
   -3.5039   28.6793    4.8636 C   0  0  0  0  0  0  0  0  0  0  0  0
   -4.8994   28.3982    4.3454 N   0  0  0  0  0  4  0  0  0  0  0  0
   -5.9298   28.2500    5.3777 C   0  0  0  0  0  0  0  0  0  0  0  0
   -6.4854   29.3942    5.9468 C   0  0  0  0  0  0  0  0  0  0  0  0
   -7.4900   29.2686    6.9104 C   0  0  0  0  0  0  0  0  0  0  0  0
   -7.9323   28.0033    7.2864 C   0  0  0  0  0  0  0  0  0  0  0  0
   -7.3866   26.9144    6.7153 N   0  0  0  0  0  4  0  0  0  0  0  0
   -6.4143   26.9953    5.7822 C   0  0  0  0  0  0  0  0  0  0  0  0
   -2.6679   29.2380    3.7304 C   0  0  0  0  0  0  0  0  0  0  0  0
   -2.0818   28.4203    2.7491 C   0  0  0  0  0  0  0  0  0  0  0  0
   -1.3569   28.9819    1.6932 C   0  0  0  0  0  0  0  0  0  0  0  0
   -1.2136   30.3647    1.5938 C   0  0  0  0  0  0  0  0  0  0  0  0
   -1.7930   31.1849    2.5538 C   0  0  0  0  0  0  0  0  0  0  0  0
   -1.6371   32.8915    2.4388 Cl  0  0  0  0  0  0  0  0  0  0  0  0
   -2.5165   30.6324    3.6137 C   0  0  0  0  0  0  0  0  0  0  0  0
  1  2  1  0
  2  3  1  0
  3  4  1  0
  4  5  2  0
  5  6  1  0
  6  7  2  0
  7  8  1  0
  8  9  2  0
  2 10  1  0
 10 11  2  0
 11 12  1  0
 12 13  2  0
 13 14  1  0
 14 15  1  0
 14 16  2  0
  9  4  1  0
 16 10  1  0
M  CHG  2   3   1   8   1
M  END
>  <Energy>  (1108) 
134.96365873426737

>  <Energy_Delta>  (1108) 
4.6443270951825184

>  <std_smi>  (1108) 
CC(Nc1cccnc1)c1cccc(Cl)c1

>  <enum_smi>  (1108) 
CC([NH2+]c1ccc[nH+]c1)c1cccc(Cl)c1

>  <enum_code>  (1108) 
M

>  <parent_uuid>  (1108) 
85d0fcce-c5b2-415e-8993-f2f147ae328b

>  <o3da_score>  (1108) 
65.784600743922709

>  <o3da_score_rel>  (1108) 
0.26189805379292752

>  <o3da_align>  (1108) 
0.50325256522652984

>  <RMSD>  (1108) 
8.0176024254719286e-05

>  <CONVERGED>  (1108) 
0

>  <ENERGY>  (1108) 
134.96365860468785

$$$$
12f9c9bf-882a-431e-a73e-8bf4b8904ee0
     RDKit          3D

 16 17  0  0  0  0  0  0  0  0999 V2000
   -4.1346   31.6386    3.9507 C   0  0  0  0  0  0  0  0  0  0  0  0
   -3.5197   30.2581    3.7139 C   0  0  0  0  0  0  0  0  0  0  0  0
   -2.0091   30.3539    3.7738 N   0  0  0  0  0  4  0  0  0  0  0  0
   -1.3794   31.0062    2.6216 C   0  0  0  0  0  0  0  0  0  0  0  0
   -1.1814   30.2715    1.4543 C   0  0  0  0  0  0  0  0  0  0  0  0
   -0.5552   30.8714    0.3582 C   0  0  0  0  0  0  0  0  0  0  0  0
   -0.1274   32.1933    0.4451 C   0  0  0  0  0  0  0  0  0  0  0  0
   -0.3217   32.8783    1.5865 N   0  0  0  0  0  4  0  0  0  0  0  0
   -0.9231   32.3338    2.6656 C   0  0  0  0  0  0  0  0  0  0  0  0
   -3.9797   29.2052    4.7013 C   0  0  0  0  0  0  0  0  0  0  0  0
   -4.1032   29.4622    6.0775 C   0  0  0  0  0  0  0  0  0  0  0  0
   -4.4858   28.4474    6.9605 C   0  0  0  0  0  0  0  0  0  0  0  0
   -4.7410   27.1613    6.4881 C   0  0  0  0  0  0  0  0  0  0  0  0
   -4.6169   26.8922    5.1308 C   0  0  0  0  0  0  0  0  0  0  0  0
   -4.9149   25.3096    4.5339 Cl  0  0  0  0  0  0  0  0  0  0  0  0
   -4.2379   27.9006    4.2409 C   0  0  0  0  0  0  0  0  0  0  0  0
  1  2  1  0
  2  3  1  0
  3  4  1  0
  4  5  2  0
  5  6  1  0
  6  7  2  0
  7  8  1  0
  8  9  2  0
  2 10  1  0
 10 11  2  0
 11 12  1  0
 12 13  2  0
 13 14  1  0
 14 15  1  0
 14 16  2  0
  9  4  1  0
 16 10  1  0
M  CHG  2   3   1   8   1
M  END
>  <Energy>  (1109) 
134.96365899354234

>  <Energy_Delta>  (1109) 
4.6443273544574879

>  <std_smi>  (1109) 
CC(Nc1cccnc1)c1cccc(Cl)c1

>  <enum_smi>  (1109) 
CC([NH2+]c1ccc[nH+]c1)c1cccc(Cl)c1

>  <enum_code>  (1109) 
M

>  <parent_uuid>  (1109) 
85d0fcce-c5b2-415e-8993-f2f147ae328b

>  <o3da_score>  (1109) 
81.73037563018471

>  <o3da_score_rel>  (1109) 
0.32538050047051048

>  <o3da_align>  (1109) 
0.46573924295341185

>  <RMSD>  (1109) 
0.00020383910110019114

>  <CONVERGED>  (1109) 
0

>  <ENERGY>  (1109) 
134.9636586046112

$$$$
12f9c9bf-882a-431e-a73e-8bf4b8904ee0
     RDKit          3D

 16 17  0  0  0  0  0  0  0  0999 V2000
   -5.6223   28.5809    4.9659 C   0  0  0  0  0  0  0  0  0  0  0  0
   -4.2395   28.0570    4.5763 C   0  0  0  0  0  0  0  0  0  0  0  0
   -3.8865   28.5092    3.1759 N   0  0  0  0  0  4  0  0  0  0  0  0
   -3.5157   29.9218    3.0471 C   0  0  0  0  0  0  0  0  0  0  0  0
   -4.4659   30.8339    2.5939 C   0  0  0  0  0  0  0  0  0  0  0  0
   -4.1136   32.1774    2.4365 C   0  0  0  0  0  0  0  0  0  0  0  0
   -2.8154   32.5901    2.7240 C   0  0  0  0  0  0  0  0  0  0  0  0
   -1.9132   31.6880    3.1502 N   0  0  0  0  0  4  0  0  0  0  0  0
   -2.2159   30.3829    3.3163 C   0  0  0  0  0  0  0  0  0  0  0  0
   -4.1228   26.5484    4.6457 C   0  0  0  0  0  0  0  0  0  0  0  0
   -5.0942   25.6949    4.0948 C   0  0  0  0  0  0  0  0  0  0  0  0
   -4.9297   24.3069    4.1366 C   0  0  0  0  0  0  0  0  0  0  0  0
   -3.7926   23.7496    4.7188 C   0  0  0  0  0  0  0  0  0  0  0  0
   -2.8230   24.5823    5.2635 C   0  0  0  0  0  0  0  0  0  0  0  0
   -1.4089   23.9135    5.9727 Cl  0  0  0  0  0  0  0  0  0  0  0  0
   -2.9806   25.9703    5.2291 C   0  0  0  0  0  0  0  0  0  0  0  0
  1  2  1  0
  2  3  1  0
  3  4  1  0
  4  5  2  0
  5  6  1  0
  6  7  2  0
  7  8  1  0
  8  9  2  0
  2 10  1  0
 10 11  2  0
 11 12  1  0
 12 13  2  0
 13 14  1  0
 14 15  1  0
 14 16  2  0
  9  4  1  0
 16 10  1  0
M  CHG  2   3   1   8   1
M  END
>  <Energy>  (1110) 
134.98601634042208

>  <Energy_Delta>  (1110) 
4.6666847013372319

>  <std_smi>  (1110) 
CC(Nc1cccnc1)c1cccc(Cl)c1

>  <enum_smi>  (1110) 
CC([NH2+]c1ccc[nH+]c1)c1cccc(Cl)c1

>  <enum_code>  (1110) 
M

>  <parent_uuid>  (1110) 
85d0fcce-c5b2-415e-8993-f2f147ae328b

>  <o3da_score>  (1110) 
75.050759566203936

>  <o3da_score_rel>  (1110) 
0.29878797839911753

>  <o3da_align>  (1110) 
0.46389758872922476

>  <RMSD>  (1110) 
8.1203842036748313e-05

>  <CONVERGED>  (1110) 
0

>  <ENERGY>  (1110) 
134.9860161149725

$$$$
12f9c9bf-882a-431e-a73e-8bf4b8904ee0
     RDKit          3D

 16 17  0  0  0  0  0  0  0  0999 V2000
   -4.1840   31.2992    3.8659 C   0  0  0  0  0  0  0  0  0  0  0  0
   -3.4329   29.9905    3.6177 C   0  0  0  0  0  0  0  0  0  0  0  0
   -1.9400   30.2216    3.7077 N   0  0  0  0  0  4  0  0  0  0  0  0
   -1.3423   30.9169    2.5637 C   0  0  0  0  0  0  0  0  0  0  0  0
   -1.0825   32.2820    2.6599 C   0  0  0  0  0  0  0  0  0  0  0  0
   -0.4830   32.9482    1.5872 C   0  0  0  0  0  0  0  0  0  0  0  0
   -0.1421   32.2410    0.4375 C   0  0  0  0  0  0  0  0  0  0  0  0
   -0.3938   30.9211    0.3731 N   0  0  0  0  0  4  0  0  0  0  0  0
   -0.9728   30.2435    1.3871 C   0  0  0  0  0  0  0  0  0  0  0  0
   -3.8140   28.8831    4.5783 C   0  0  0  0  0  0  0  0  0  0  0  0
   -3.9011   29.0908    5.9657 C   0  0  0  0  0  0  0  0  0  0  0  0
   -4.2101   28.0330    6.8267 C   0  0  0  0  0  0  0  0  0  0  0  0
   -4.4277   26.7530    6.3201 C   0  0  0  0  0  0  0  0  0  0  0  0
   -4.3406   26.5336    4.9510 C   0  0  0  0  0  0  0  0  0  0  0  0
   -4.5920   24.9599    4.3104 Cl  0  0  0  0  0  0  0  0  0  0  0  0
   -4.0356   27.5853    4.0828 C   0  0  0  0  0  0  0  0  0  0  0  0
  1  2  1  0
  2  3  1  0
  3  4  1  0
  4  5  2  0
  5  6  1  0
  6  7  2  0
  7  8  1  0
  8  9  2  0
  2 10  1  0
 10 11  2  0
 11 12  1  0
 12 13  2  0
 13 14  1  0
 14 15  1  0
 14 16  2  0
  9  4  1  0
 16 10  1  0
M  CHG  2   3   1   8   1
M  END
>  <Energy>  (1111) 
134.98601634108516

>  <Energy_Delta>  (1111) 
4.6666847020003104

>  <std_smi>  (1111) 
CC(Nc1cccnc1)c1cccc(Cl)c1

>  <enum_smi>  (1111) 
CC([NH2+]c1ccc[nH+]c1)c1cccc(Cl)c1

>  <enum_code>  (1111) 
M

>  <parent_uuid>  (1111) 
85d0fcce-c5b2-415e-8993-f2f147ae328b

>  <o3da_score>  (1111) 
74.056849734508816

>  <o3da_score_rel>  (1111) 
0.29483107894813687

>  <o3da_align>  (1111) 
0.43356222451977822

>  <RMSD>  (1111) 
7.6837392307124554e-05

>  <CONVERGED>  (1111) 
0

>  <ENERGY>  (1111) 
134.98601611456778

$$$$
12f9c9bf-882a-431e-a73e-8bf4b8904ee0
     RDKit          3D

 16 17  0  0  0  0  0  0  0  0999 V2000
   -1.8928   28.1844    3.4484 C   0  0  0  0  0  0  0  0  0  0  0  0
   -2.5761   29.4671    3.9236 C   0  0  0  0  0  0  0  0  0  0  0  0
   -2.9894   30.3125    2.7382 N   0  0  0  0  0  4  0  0  0  0  0  0
   -1.8938   30.9736    2.0222 C   0  0  0  0  0  0  0  0  0  0  0  0
   -1.4161   30.4065    0.8428 C   0  0  0  0  0  0  0  0  0  0  0  0
   -0.3956   31.0452    0.1327 C   0  0  0  0  0  0  0  0  0  0  0  0
    0.1270   32.2462    0.6038 C   0  0  0  0  0  0  0  0  0  0  0  0
   -0.3585   32.7792    1.7396 N   0  0  0  0  0  4  0  0  0  0  0  0
   -1.3417   32.1912    2.4539 C   0  0  0  0  0  0  0  0  0  0  0  0
   -3.7908   29.1965    4.7870 C   0  0  0  0  0  0  0  0  0  0  0  0
   -3.9010   29.7975    6.0528 C   0  0  0  0  0  0  0  0  0  0  0  0
   -5.0312   29.5855    6.8478 C   0  0  0  0  0  0  0  0  0  0  0  0
   -6.0697   28.7761    6.3912 C   0  0  0  0  0  0  0  0  0  0  0  0
   -5.9727   28.1748    5.1422 C   0  0  0  0  0  0  0  0  0  0  0  0
   -7.2483   27.1817    4.5617 Cl  0  0  0  0  0  0  0  0  0  0  0  0
   -4.8453   28.3789    4.3415 C   0  0  0  0  0  0  0  0  0  0  0  0
  1  2  1  0
  2  3  1  0
  3  4  1  0
  4  5  2  0
  5  6  1  0
  6  7  2  0
  7  8  1  0
  8  9  2  0
  2 10  1  0
 10 11  2  0
 11 12  1  0
 12 13  2  0
 13 14  1  0
 14 15  1  0
 14 16  2  0
  9  4  1  0
 16 10  1  0
M  CHG  2   3   1   8   1
M  END
>  <Energy>  (1112) 
135.22103184509066

>  <Energy_Delta>  (1112) 
4.9017002060058132

>  <std_smi>  (1112) 
CC(Nc1cccnc1)c1cccc(Cl)c1

>  <enum_smi>  (1112) 
CC([NH2+]c1ccc[nH+]c1)c1cccc(Cl)c1

>  <enum_code>  (1112) 
M

>  <parent_uuid>  (1112) 
85d0fcce-c5b2-415e-8993-f2f147ae328b

>  <o3da_score>  (1112) 
71.59681900394483

>  <o3da_score_rel>  (1112) 
0.28503733917743501

>  <o3da_align>  (1112) 
0.56581431372468527

>  <RMSD>  (1112) 
0.00024024099976200145

>  <CONVERGED>  (1112) 
0

>  <ENERGY>  (1112) 
135.22103216261618

$$$$
12f9c9bf-882a-431e-a73e-8bf4b8904ee0
     RDKit          3D

 16 17  0  0  0  0  0  0  0  0999 V2000
   -2.8184   27.7260    5.6553 C   0  0  0  0  0  0  0  0  0  0  0  0
   -3.5514   28.8194    4.8773 C   0  0  0  0  0  0  0  0  0  0  0  0
   -4.8742   28.2982    4.3583 N   0  0  0  0  0  4  0  0  0  0  0  0
   -5.9158   28.1009    5.3713 C   0  0  0  0  0  0  0  0  0  0  0  0
   -6.1481   26.8182    5.8627 C   0  0  0  0  0  0  0  0  0  0  0  0
   -7.1613   26.6115    6.8032 C   0  0  0  0  0  0  0  0  0  0  0  0
   -7.9353   27.6859    7.2325 C   0  0  0  0  0  0  0  0  0  0  0  0
   -7.6984   28.9131    6.7351 N   0  0  0  0  0  4  0  0  0  0  0  0
   -6.7280   29.1526    5.8275 C   0  0  0  0  0  0  0  0  0  0  0  0
   -2.7393   29.3542    3.7159 C   0  0  0  0  0  0  0  0  0  0  0  0
   -2.5188   30.7367    3.5905 C   0  0  0  0  0  0  0  0  0  0  0  0
   -1.8007   31.2496    2.5064 C   0  0  0  0  0  0  0  0  0  0  0  0
   -1.2965   30.3935    1.5292 C   0  0  0  0  0  0  0  0  0  0  0  0
   -1.5063   29.0244    1.6419 C   0  0  0  0  0  0  0  0  0  0  0  0
   -0.8988   27.9570    0.4411 Cl  0  0  0  0  0  0  0  0  0  0  0  0
   -2.2207   28.5023    2.7239 C   0  0  0  0  0  0  0  0  0  0  0  0
  1  2  1  0
  2  3  1  0
  3  4  1  0
  4  5  2  0
  5  6  1  0
  6  7  2  0
  7  8  1  0
  8  9  2  0
  2 10  1  0
 10 11  2  0
 11 12  1  0
 12 13  2  0
 13 14  1  0
 14 15  1  0
 14 16  2  0
  9  4  1  0
 16 10  1  0
M  CHG  2   3   1   8   1
M  END
>  <Energy>  (1113) 
135.22103224160071

>  <Energy_Delta>  (1113) 
4.9017006025158594

>  <std_smi>  (1113) 
CC(Nc1cccnc1)c1cccc(Cl)c1

>  <enum_smi>  (1113) 
CC([NH2+]c1ccc[nH+]c1)c1cccc(Cl)c1

>  <enum_code>  (1113) 
M

>  <parent_uuid>  (1113) 
85d0fcce-c5b2-415e-8993-f2f147ae328b

>  <o3da_score>  (1113) 
65.774307163870731

>  <o3da_score_rel>  (1113) 
0.26185707355512583

>  <o3da_align>  (1113) 
0.4109984842516104

>  <RMSD>  (1113) 
7.8055053137763758e-05

>  <CONVERGED>  (1113) 
0

>  <ENERGY>  (1113) 
135.22103181170633

$$$$
12f9c9bf-882a-431e-a73e-8bf4b8904ee0
     RDKit          3D

 16 17  0  0  0  0  0  0  0  0999 V2000
   -3.9192   28.9015    6.5663 C   0  0  0  0  0  0  0  0  0  0  0  0
   -4.6230   28.1786    5.4155 C   0  0  0  0  0  0  0  0  0  0  0  0
   -4.5910   29.0557    4.1726 N   0  0  0  0  0  4  0  0  0  0  0  0
   -3.2936   29.1680    3.4850 C   0  0  0  0  0  0  0  0  0  0  0  0
   -2.9931   28.2804    2.4524 C   0  0  0  0  0  0  0  0  0  0  0  0
   -1.7805   28.3952    1.7675 C   0  0  0  0  0  0  0  0  0  0  0  0
   -0.8887   29.4058    2.1108 C   0  0  0  0  0  0  0  0  0  0  0  0
   -1.2076   30.2628    3.0972 N   0  0  0  0  0  4  0  0  0  0  0  0
   -2.3679   30.1809    3.7825 C   0  0  0  0  0  0  0  0  0  0  0  0
   -4.1850   26.7547    5.1408 C   0  0  0  0  0  0  0  0  0  0  0  0
   -2.9348   26.2475    5.5334 C   0  0  0  0  0  0  0  0  0  0  0  0
   -2.5646   24.9352    5.2204 C   0  0  0  0  0  0  0  0  0  0  0  0
   -3.4314   24.1093    4.5078 C   0  0  0  0  0  0  0  0  0  0  0  0
   -4.6740   24.5933    4.1194 C   0  0  0  0  0  0  0  0  0  0  0  0
   -5.7490   23.5939    3.2286 Cl  0  0  0  0  0  0  0  0  0  0  0  0
   -5.0546   25.9002    4.4342 C   0  0  0  0  0  0  0  0  0  0  0  0
  1  2  1  0
  2  3  1  0
  3  4  1  0
  4  5  2  0
  5  6  1  0
  6  7  2  0
  7  8  1  0
  8  9  2  0
  2 10  1  0
 10 11  2  0
 11 12  1  0
 12 13  2  0
 13 14  1  0
 14 15  1  0
 14 16  2  0
  9  4  1  0
 16 10  1  0
M  CHG  2   3   1   8   1
M  END
>  <Energy>  (1114) 
135.68737034991227

>  <Energy_Delta>  (1114) 
5.3680387108274203

>  <std_smi>  (1114) 
CC(Nc1cccnc1)c1cccc(Cl)c1

>  <enum_smi>  (1114) 
CC([NH2+]c1ccc[nH+]c1)c1cccc(Cl)c1

>  <enum_code>  (1114) 
M

>  <parent_uuid>  (1114) 
85d0fcce-c5b2-415e-8993-f2f147ae328b

>  <o3da_score>  (1114) 
72.274088895750737

>  <o3da_score_rel>  (1114) 
0.28773364902123838

>  <o3da_align>  (1114) 
0.49337904146448452

>  <RMSD>  (1114) 
0.00020663836044206875

>  <CONVERGED>  (1114) 
0

>  <ENERGY>  (1114) 
135.68737053216881

$$$$
ca8fbf9a-7c90-4da7-8fd6-81d5f20eb46b
     RDKit          3D

 16 17  0  0  0  0  0  0  0  0999 V2000
   -2.4711   27.9005    5.8977 C   0  0  0  0  0  0  0  0  0  0  0  0
   -3.4396   28.7855    5.1105 C   0  0  0  0  0  0  0  0  0  0  0  0
   -4.6638   28.0235    4.8248 N   0  0  0  0  0  0  0  0  0  0  0  0
   -5.7957   28.5666    4.2295 C   0  0  0  0  0  0  0  0  0  0  0  0
   -6.7958   27.6965    3.7777 C   0  0  0  0  0  0  0  0  0  0  0  0
   -7.9786   28.1809    3.2215 C   0  0  0  0  0  0  0  0  0  0  0  0
   -8.1651   29.5502    3.1414 C   0  0  0  0  0  0  0  0  0  0  0  0
   -7.2185   30.3765    3.6076 N   0  0  0  0  0  4  0  0  0  0  0  0
   -6.0726   29.9325    4.1507 C   0  0  0  0  0  0  0  0  0  0  0  0
   -2.7928   29.2978    3.8348 C   0  0  0  0  0  0  0  0  0  0  0  0
   -2.5419   28.4548    2.7385 C   0  0  0  0  0  0  0  0  0  0  0  0
   -1.9500   28.9517    1.5745 C   0  0  0  0  0  0  0  0  0  0  0  0
   -1.5979   30.2975    1.4884 C   0  0  0  0  0  0  0  0  0  0  0  0
   -1.8302   31.1394    2.5715 C   0  0  0  0  0  0  0  0  0  0  0  0
   -1.4102   32.8037    2.4705 Cl  0  0  0  0  0  0  0  0  0  0  0  0
   -2.4151   30.6481    3.7399 C   0  0  0  0  0  0  0  0  0  0  0  0
  1  2  1  0
  2  3  1  0
  3  4  1  0
  4  5  2  0
  5  6  1  0
  6  7  2  0
  7  8  1  0
  8  9  2  0
  2 10  1  0
 10 11  2  0
 11 12  1  0
 12 13  2  0
 13 14  1  0
 14 15  1  0
 14 16  2  0
  9  4  1  0
 16 10  1  0
M  CHG  1   8   1
M  END
>  <Energy>  (1115) 
71.248450512959991

>  <Energy_Delta>  (1115) 
0

>  <std_smi>  (1115) 
CC(Nc1cccnc1)c1cccc(Cl)c1

>  <enum_smi>  (1115) 
CC(Nc1ccc[nH+]c1)c1cccc(Cl)c1

>  <enum_code>  (1115) 
M

>  <parent_uuid>  (1115) 
85d0fcce-c5b2-415e-8993-f2f147ae328b

>  <o3da_score>  (1115) 
70.019140460364795

>  <o3da_score_rel>  (1115) 
0.27875637166525252

>  <o3da_align>  (1115) 
0.36089490167673716

>  <RMSD>  (1115) 
7.2853165379902103e-05

>  <CONVERGED>  (1115) 
0

>  <ENERGY>  (1115) 
71.248450472901496

$$$$
ca8fbf9a-7c90-4da7-8fd6-81d5f20eb46b
     RDKit          3D

 16 17  0  0  0  0  0  0  0  0999 V2000
   -4.4088   30.3257    5.0284 C   0  0  0  0  0  0  0  0  0  0  0  0
   -3.6331   29.0094    4.9474 C   0  0  0  0  0  0  0  0  0  0  0  0
   -4.5775   27.9082    4.7097 N   0  0  0  0  0  0  0  0  0  0  0  0
   -4.2194   26.5658    4.7020 C   0  0  0  0  0  0  0  0  0  0  0  0
   -5.1422   25.6309    4.2165 C   0  0  0  0  0  0  0  0  0  0  0  0
   -4.8644   24.2650    4.2328 C   0  0  0  0  0  0  0  0  0  0  0  0
   -3.6595   23.8366    4.7628 C   0  0  0  0  0  0  0  0  0  0  0  0
   -2.7963   24.7346    5.2573 N   0  0  0  0  0  4  0  0  0  0  0  0
   -3.0441   26.0551    5.2554 C   0  0  0  0  0  0  0  0  0  0  0  0
   -2.5681   29.0721    3.8657 C   0  0  0  0  0  0  0  0  0  0  0  0
   -2.8954   29.0590    2.4989 C   0  0  0  0  0  0  0  0  0  0  0  0
   -1.8966   29.1129    1.5234 C   0  0  0  0  0  0  0  0  0  0  0  0
   -0.5560   29.1826    1.8980 C   0  0  0  0  0  0  0  0  0  0  0  0
   -0.2200   29.2084    3.2479 C   0  0  0  0  0  0  0  0  0  0  0  0
    1.4318   29.2823    3.7200 Cl  0  0  0  0  0  0  0  0  0  0  0  0
   -1.2132   29.1616    4.2278 C   0  0  0  0  0  0  0  0  0  0  0  0
  1  2  1  0
  2  3  1  0
  3  4  1  0
  4  5  2  0
  5  6  1  0
  6  7  2  0
  7  8  1  0
  8  9  2  0
  2 10  1  0
 10 11  2  0
 11 12  1  0
 12 13  2  0
 13 14  1  0
 14 15  1  0
 14 16  2  0
  9  4  1  0
 16 10  1  0
M  CHG  1   8   1
M  END
>  <Energy>  (1116) 
71.248450699481651

>  <Energy_Delta>  (1116) 
1.8652166033916728e-07

>  <std_smi>  (1116) 
CC(Nc1cccnc1)c1cccc(Cl)c1

>  <enum_smi>  (1116) 
CC(Nc1ccc[nH+]c1)c1cccc(Cl)c1

>  <enum_code>  (1116) 
M

>  <parent_uuid>  (1116) 
85d0fcce-c5b2-415e-8993-f2f147ae328b

>  <o3da_score>  (1116) 
78.793024190158661

>  <o3da_score_rel>  (1116) 
0.31368647760270824

>  <o3da_align>  (1116) 
0.35229577677276652

>  <RMSD>  (1116) 
8.679942639585365e-05

>  <CONVERGED>  (1116) 
0

>  <ENERGY>  (1116) 
71.248450473263048

$$$$
ca8fbf9a-7c90-4da7-8fd6-81d5f20eb46b
     RDKit          3D

 16 17  0  0  0  0  0  0  0  0999 V2000
   -5.5839   28.2078    6.2938 C   0  0  0  0  0  0  0  0  0  0  0  0
   -4.8659   28.0940    4.9478 C   0  0  0  0  0  0  0  0  0  0  0  0
   -3.8047   29.1087    4.8836 N   0  0  0  0  0  0  0  0  0  0  0  0
   -3.0128   29.3465    3.7688 C   0  0  0  0  0  0  0  0  0  0  0  0
   -1.9006   30.1863    3.9057 C   0  0  0  0  0  0  0  0  0  0  0  0
   -1.0942   30.5017    2.8135 C   0  0  0  0  0  0  0  0  0  0  0  0
   -1.4230   29.9857    1.5720 C   0  0  0  0  0  0  0  0  0  0  0  0
   -2.5082   29.2096    1.4426 N   0  0  0  0  0  4  0  0  0  0  0  0
   -3.3019   28.8952    2.4800 C   0  0  0  0  0  0  0  0  0  0  0  0
   -4.3274   26.6868    4.7487 C   0  0  0  0  0  0  0  0  0  0  0  0
   -5.0682   25.7606    3.9936 C   0  0  0  0  0  0  0  0  0  0  0  0
   -4.5996   24.4590    3.7978 C   0  0  0  0  0  0  0  0  0  0  0  0
   -3.3859   24.0621    4.3565 C   0  0  0  0  0  0  0  0  0  0  0  0
   -2.6507   24.9650    5.1188 C   0  0  0  0  0  0  0  0  0  0  0  0
   -1.1502   24.4829    5.8066 Cl  0  0  0  0  0  0  0  0  0  0  0  0
   -3.1167   26.2643    5.3239 C   0  0  0  0  0  0  0  0  0  0  0  0
  1  2  1  0
  2  3  1  0
  3  4  1  0
  4  5  2  0
  5  6  1  0
  6  7  2  0
  7  8  1  0
  8  9  2  0
  2 10  1  0
 10 11  2  0
 11 12  1  0
 12 13  2  0
 13 14  1  0
 14 15  1  0
 14 16  2  0
  9  4  1  0
 16 10  1  0
M  CHG  1   8   1
M  END
>  <Energy>  (1117) 
71.265901127223088

>  <Energy_Delta>  (1117) 
0.017450614263097464

>  <std_smi>  (1117) 
CC(Nc1cccnc1)c1cccc(Cl)c1

>  <enum_smi>  (1117) 
CC(Nc1ccc[nH+]c1)c1cccc(Cl)c1

>  <enum_code>  (1117) 
M

>  <parent_uuid>  (1117) 
85d0fcce-c5b2-415e-8993-f2f147ae328b

>  <o3da_score>  (1117) 
94.890148544796062

>  <o3da_score_rel>  (1117) 
0.37777146850434767

>  <o3da_align>  (1117) 
0.35785354486973586

>  <RMSD>  (1117) 
0.20429294655748947

>  <CONVERGED>  (1117) 
0

>  <ENERGY>  (1117) 
71.209612240327644

$$$$
ca8fbf9a-7c90-4da7-8fd6-81d5f20eb46b
     RDKit          3D

 16 17  0  0  0  0  0  0  0  0999 V2000
   -6.0720   28.2848    5.2358 C   0  0  0  0  0  0  0  0  0  0  0  0
   -4.7173   27.9807    4.5866 C   0  0  0  0  0  0  0  0  0  0  0  0
   -4.7518   28.4424    3.1867 N   0  0  0  0  0  0  0  0  0  0  0  0
   -3.5937   28.6167    2.4303 C   0  0  0  0  0  0  0  0  0  0  0  0
   -2.3383   28.8861    2.9832 C   0  0  0  0  0  0  0  0  0  0  0  0
   -1.2264   29.1211    2.1729 C   0  0  0  0  0  0  0  0  0  0  0  0
   -1.3860   29.1171    0.7982 C   0  0  0  0  0  0  0  0  0  0  0  0
   -2.6002   28.9015    0.2748 N   0  0  0  0  0  4  0  0  0  0  0  0
   -3.6827   28.6712    1.0349 C   0  0  0  0  0  0  0  0  0  0  0  0
   -4.3800   26.4989    4.6328 C   0  0  0  0  0  0  0  0  0  0  0  0
   -5.2504   25.5193    4.1226 C   0  0  0  0  0  0  0  0  0  0  0  0
   -4.9058   24.1653    4.1593 C   0  0  0  0  0  0  0  0  0  0  0  0
   -3.6837   23.7689    4.6992 C   0  0  0  0  0  0  0  0  0  0  0  0
   -2.8125   24.7284    5.2054 C   0  0  0  0  0  0  0  0  0  0  0  0
   -1.2961   24.2491    5.8601 Cl  0  0  0  0  0  0  0  0  0  0  0  0
   -3.1541   26.0814    5.1784 C   0  0  0  0  0  0  0  0  0  0  0  0
  1  2  1  0
  2  3  1  0
  3  4  1  0
  4  5  2  0
  5  6  1  0
  6  7  2  0
  7  8  1  0
  8  9  2  0
  2 10  1  0
 10 11  2  0
 11 12  1  0
 12 13  2  0
 13 14  1  0
 14 15  1  0
 14 16  2  0
  9  4  1  0
 16 10  1  0
M  CHG  1   8   1
M  END
>  <Energy>  (1118) 
73.227843590854349

>  <Energy_Delta>  (1118) 
1.9793930778943576

>  <std_smi>  (1118) 
CC(Nc1cccnc1)c1cccc(Cl)c1

>  <enum_smi>  (1118) 
CC(Nc1ccc[nH+]c1)c1cccc(Cl)c1

>  <enum_code>  (1118) 
M

>  <parent_uuid>  (1118) 
85d0fcce-c5b2-415e-8993-f2f147ae328b

>  <o3da_score>  (1118) 
71.400520565435897

>  <o3da_score_rel>  (1118) 
0.28425584657237679

>  <o3da_align>  (1118) 
0.34136187070577423

>  <RMSD>  (1118) 
7.7368941226801396e-05

>  <CONVERGED>  (1118) 
0

>  <ENERGY>  (1118) 
73.227843555297014

$$$$
ca8fbf9a-7c90-4da7-8fd6-81d5f20eb46b
     RDKit          3D

 16 17  0  0  0  0  0  0  0  0999 V2000
   -5.5556   28.7510    4.4592 C   0  0  0  0  0  0  0  0  0  0  0  0
   -4.1525   28.1542    4.5978 C   0  0  0  0  0  0  0  0  0  0  0  0
   -3.3220   28.5709    3.4638 N   0  0  0  0  0  0  0  0  0  0  0  0
   -2.7597   29.8226    3.2917 C   0  0  0  0  0  0  0  0  0  0  0  0
   -2.1867   30.1328    2.0520 C   0  0  0  0  0  0  0  0  0  0  0  0
   -1.5438   31.3502    1.8345 C   0  0  0  0  0  0  0  0  0  0  0  0
   -1.4572   32.2526    2.8799 C   0  0  0  0  0  0  0  0  0  0  0  0
   -1.9832   31.9382    4.0722 N   0  0  0  0  0  4  0  0  0  0  0  0
   -2.6088   30.7714    4.3038 C   0  0  0  0  0  0  0  0  0  0  0  0
   -4.1001   26.6352    4.6631 C   0  0  0  0  0  0  0  0  0  0  0  0
   -5.1488   25.8041    4.2378 C   0  0  0  0  0  0  0  0  0  0  0  0
   -5.0340   24.4116    4.3082 C   0  0  0  0  0  0  0  0  0  0  0  0
   -3.8673   23.8259    4.7962 C   0  0  0  0  0  0  0  0  0  0  0  0
   -2.8153   24.6355    5.2097 C   0  0  0  0  0  0  0  0  0  0  0  0
   -1.3660   23.9247    5.8031 Cl  0  0  0  0  0  0  0  0  0  0  0  0
   -2.9251   26.0249    5.1435 C   0  0  0  0  0  0  0  0  0  0  0  0
  1  2  1  0
  2  3  1  0
  3  4  1  0
  4  5  2  0
  5  6  1  0
  6  7  2  0
  7  8  1  0
  8  9  2  0
  2 10  1  0
 10 11  2  0
 11 12  1  0
 12 13  2  0
 13 14  1  0
 14 15  1  0
 14 16  2  0
  9  4  1  0
 16 10  1  0
M  CHG  1   8   1
M  END
>  <Energy>  (1119) 
73.608578068513722

>  <Energy_Delta>  (1119) 
2.3601275555537313

>  <std_smi>  (1119) 
CC(Nc1cccnc1)c1cccc(Cl)c1

>  <enum_smi>  (1119) 
CC(Nc1ccc[nH+]c1)c1cccc(Cl)c1

>  <enum_code>  (1119) 
M

>  <parent_uuid>  (1119) 
85d0fcce-c5b2-415e-8993-f2f147ae328b

>  <o3da_score>  (1119) 
82.166161475920376

>  <o3da_score_rel>  (1119) 
0.32711542724027159

>  <o3da_align>  (1119) 
0.4649363393795698

>  <RMSD>  (1119) 
6.6904348600170887e-05

>  <CONVERGED>  (1119) 
0

>  <ENERGY>  (1119) 
73.608578049074026

$$$$
ca8fbf9a-7c90-4da7-8fd6-81d5f20eb46b
     RDKit          3D

 16 17  0  0  0  0  0  0  0  0999 V2000
   -1.8694   27.8689    6.6225 C   0  0  0  0  0  0  0  0  0  0  0  0
   -3.2603   27.9933    5.9931 C   0  0  0  0  0  0  0  0  0  0  0  0
   -3.3196   29.2025    5.1510 N   0  0  0  0  0  0  0  0  0  0  0  0
   -2.6335   29.4398    3.9704 C   0  0  0  0  0  0  0  0  0  0  0  0
   -2.6653   30.7357    3.4365 C   0  0  0  0  0  0  0  0  0  0  0  0
   -2.0670   31.0342    2.2131 C   0  0  0  0  0  0  0  0  0  0  0  0
   -1.4527   30.0148    1.5077 C   0  0  0  0  0  0  0  0  0  0  0  0
   -1.4495   28.7725    2.0090 N   0  0  0  0  0  4  0  0  0  0  0  0
   -2.0163   28.4639    3.1875 C   0  0  0  0  0  0  0  0  0  0  0  0
   -3.8084   26.7716    5.2695 C   0  0  0  0  0  0  0  0  0  0  0  0
   -5.0591   26.8570    4.6267 C   0  0  0  0  0  0  0  0  0  0  0  0
   -5.6078   25.7601    3.9579 C   0  0  0  0  0  0  0  0  0  0  0  0
   -4.9189   24.5508    3.9233 C   0  0  0  0  0  0  0  0  0  0  0  0
   -3.6903   24.4433    4.5671 C   0  0  0  0  0  0  0  0  0  0  0  0
   -2.8275   22.9562    4.5187 Cl  0  0  0  0  0  0  0  0  0  0  0  0
   -3.1396   25.5363    5.2426 C   0  0  0  0  0  0  0  0  0  0  0  0
  1  2  1  0
  2  3  1  0
  3  4  1  0
  4  5  2  0
  5  6  1  0
  6  7  2  0
  7  8  1  0
  8  9  2  0
  2 10  1  0
 10 11  2  0
 11 12  1  0
 12 13  2  0
 13 14  1  0
 14 15  1  0
 14 16  2  0
  9  4  1  0
 16 10  1  0
M  CHG  1   8   1
M  END
>  <Energy>  (1120) 
73.665077278559664

>  <Energy_Delta>  (1120) 
2.4166267655996734

>  <std_smi>  (1120) 
CC(Nc1cccnc1)c1cccc(Cl)c1

>  <enum_smi>  (1120) 
CC(Nc1ccc[nH+]c1)c1cccc(Cl)c1

>  <enum_code>  (1120) 
M

>  <parent_uuid>  (1120) 
85d0fcce-c5b2-415e-8993-f2f147ae328b

>  <o3da_score>  (1120) 
75.309457808118552

>  <o3da_score_rel>  (1120) 
0.29981789368796802

>  <o3da_align>  (1120) 
0.58131963678119558

>  <RMSD>  (1120) 
7.3583714367836902e-05

>  <CONVERGED>  (1120) 
0

>  <ENERGY>  (1120) 
73.665077227062454

$$$$
ca8fbf9a-7c90-4da7-8fd6-81d5f20eb46b
     RDKit          3D

 16 17  0  0  0  0  0  0  0  0999 V2000
   -5.6291   28.5259    4.3110 C   0  0  0  0  0  0  0  0  0  0  0  0
   -4.2167   27.9516    4.4499 C   0  0  0  0  0  0  0  0  0  0  0  0
   -3.4317   28.2638    3.2480 N   0  0  0  0  0  0  0  0  0  0  0  0
   -2.8510   29.4881    2.9693 C   0  0  0  0  0  0  0  0  0  0  0  0
   -2.7664   30.5374    3.8882 C   0  0  0  0  0  0  0  0  0  0  0  0
   -2.0954   31.7206    3.5743 C   0  0  0  0  0  0  0  0  0  0  0  0
   -1.4835   31.8374    2.3379 C   0  0  0  0  0  0  0  0  0  0  0  0
   -1.5421   30.8160    1.4729 N   0  0  0  0  0  4  0  0  0  0  0  0
   -2.1848   29.6711    1.7523 C   0  0  0  0  0  0  0  0  0  0  0  0
   -4.1515   26.4417    4.6403 C   0  0  0  0  0  0  0  0  0  0  0  0
   -5.2122   25.5734    4.3368 C   0  0  0  0  0  0  0  0  0  0  0  0
   -5.0813   24.1920    4.5158 C   0  0  0  0  0  0  0  0  0  0  0  0
   -3.8868   23.6547    4.9920 C   0  0  0  0  0  0  0  0  0  0  0  0
   -2.8238   24.5010    5.2876 C   0  0  0  0  0  0  0  0  0  0  0  0
   -1.3400   23.8480    5.8618 Cl  0  0  0  0  0  0  0  0  0  0  0  0
   -2.9499   25.8796    5.1145 C   0  0  0  0  0  0  0  0  0  0  0  0
  1  2  1  0
  2  3  1  0
  3  4  1  0
  4  5  2  0
  5  6  1  0
  6  7  2  0
  7  8  1  0
  8  9  2  0
  2 10  1  0
 10 11  2  0
 11 12  1  0
 12 13  2  0
 13 14  1  0
 14 15  1  0
 14 16  2  0
  9  4  1  0
 16 10  1  0
M  CHG  1   8   1
M  END
>  <Energy>  (1121) 
73.734436838436793

>  <Energy_Delta>  (1121) 
2.4859863254768015

>  <std_smi>  (1121) 
CC(Nc1cccnc1)c1cccc(Cl)c1

>  <enum_smi>  (1121) 
CC(Nc1ccc[nH+]c1)c1cccc(Cl)c1

>  <enum_code>  (1121) 
M

>  <parent_uuid>  (1121) 
85d0fcce-c5b2-415e-8993-f2f147ae328b

>  <o3da_score>  (1121) 
82.230213221005627

>  <o3da_score_rel>  (1121) 
0.32737042654391058

>  <o3da_align>  (1121) 
0.50651563966333002

>  <RMSD>  (1121) 
7.9758765609497408e-05

>  <CONVERGED>  (1121) 
0

>  <ENERGY>  (1121) 
73.734436799938067

$$$$
ca8fbf9a-7c90-4da7-8fd6-81d5f20eb46b
     RDKit          3D

 16 17  0  0  0  0  0  0  0  0999 V2000
   -2.9602   26.3175    5.3503 C   0  0  0  0  0  0  0  0  0  0  0  0
   -4.0220   26.7903    4.3538 C   0  0  0  0  0  0  0  0  0  0  0  0
   -3.3745   27.2608    3.1219 N   0  0  0  0  0  0  0  0  0  0  0  0
   -2.7542   28.4872    2.9641 C   0  0  0  0  0  0  0  0  0  0  0  0
   -2.8322   29.5252    3.8963 C   0  0  0  0  0  0  0  0  0  0  0  0
   -2.2518   30.7693    3.6428 C   0  0  0  0  0  0  0  0  0  0  0  0
   -1.6124   30.9776    2.4327 C   0  0  0  0  0  0  0  0  0  0  0  0
   -1.5677   29.9882    1.5306 N   0  0  0  0  0  4  0  0  0  0  0  0
   -2.1154   28.7833    1.7548 C   0  0  0  0  0  0  0  0  0  0  0  0
   -5.0364   25.7308    3.9428 C   0  0  0  0  0  0  0  0  0  0  0  0
   -4.8365   24.3526    4.1212 C   0  0  0  0  0  0  0  0  0  0  0  0
   -5.8001   23.4285    3.7031 C   0  0  0  0  0  0  0  0  0  0  0  0
   -6.9743   23.8648    3.0921 C   0  0  0  0  0  0  0  0  0  0  0  0
   -7.1821   25.2261    2.8993 C   0  0  0  0  0  0  0  0  0  0  0  0
   -8.6206   25.7752    2.1332 Cl  0  0  0  0  0  0  0  0  0  0  0  0
   -6.2264   26.1522    3.3176 C   0  0  0  0  0  0  0  0  0  0  0  0
  1  2  1  0
  2  3  1  0
  3  4  1  0
  4  5  2  0
  5  6  1  0
  6  7  2  0
  7  8  1  0
  8  9  2  0
  2 10  1  0
 10 11  2  0
 11 12  1  0
 12 13  2  0
 13 14  1  0
 14 15  1  0
 14 16  2  0
  9  4  1  0
 16 10  1  0
M  CHG  1   8   1
M  END
>  <Energy>  (1122) 
73.734436867903241

>  <Energy_Delta>  (1122) 
2.4859863549432504

>  <std_smi>  (1122) 
CC(Nc1cccnc1)c1cccc(Cl)c1

>  <enum_smi>  (1122) 
CC(Nc1ccc[nH+]c1)c1cccc(Cl)c1

>  <enum_code>  (1122) 
M

>  <parent_uuid>  (1122) 
85d0fcce-c5b2-415e-8993-f2f147ae328b

>  <o3da_score>  (1122) 
74.827066249456635

>  <o3da_score_rel>  (1122) 
0.29789742280342951

>  <o3da_align>  (1122) 
0.36799668547927056

>  <RMSD>  (1122) 
6.9496459815787835e-05

>  <CONVERGED>  (1122) 
0

>  <ENERGY>  (1122) 
73.734436798835063

$$$$
ca8fbf9a-7c90-4da7-8fd6-81d5f20eb46b
     RDKit          3D

 16 17  0  0  0  0  0  0  0  0999 V2000
   -4.3710   29.1580    6.4919 C   0  0  0  0  0  0  0  0  0  0  0  0
   -3.6453   28.9670    5.1574 C   0  0  0  0  0  0  0  0  0  0  0  0
   -4.2758   27.8809    4.4009 N   0  0  0  0  0  0  0  0  0  0  0  0
   -4.1340   26.5296    4.6580 C   0  0  0  0  0  0  0  0  0  0  0  0
   -4.9776   25.6309    3.9930 C   0  0  0  0  0  0  0  0  0  0  0  0
   -4.8417   24.2532    4.1552 C   0  0  0  0  0  0  0  0  0  0  0  0
   -3.8343   23.7763    4.9752 C   0  0  0  0  0  0  0  0  0  0  0  0
   -3.0126   24.6408    5.5870 N   0  0  0  0  0  4  0  0  0  0  0  0
   -3.1262   25.9726    5.4463 C   0  0  0  0  0  0  0  0  0  0  0  0
   -3.6194   30.1914    4.2549 C   0  0  0  0  0  0  0  0  0  0  0  0
   -4.4967   31.2784    4.3973 C   0  0  0  0  0  0  0  0  0  0  0  0
   -4.4339   32.3699    3.5244 C   0  0  0  0  0  0  0  0  0  0  0  0
   -3.5001   32.3903    2.4901 C   0  0  0  0  0  0  0  0  0  0  0  0
   -2.6327   31.3158    2.3287 C   0  0  0  0  0  0  0  0  0  0  0  0
   -1.4835   31.3238    1.0491 Cl  0  0  0  0  0  0  0  0  0  0  0  0
   -2.6896   30.2254    3.1975 C   0  0  0  0  0  0  0  0  0  0  0  0
  1  2  1  0
  2  3  1  0
  3  4  1  0
  4  5  2  0
  5  6  1  0
  6  7  2  0
  7  8  1  0
  8  9  2  0
  2 10  1  0
 10 11  2  0
 11 12  1  0
 12 13  2  0
 13 14  1  0
 14 15  1  0
 14 16  2  0
  9  4  1  0
 16 10  1  0
M  CHG  1   8   1
M  END
>  <Energy>  (1123) 
73.819709652724882

>  <Energy_Delta>  (1123) 
2.5712591397648907

>  <std_smi>  (1123) 
CC(Nc1cccnc1)c1cccc(Cl)c1

>  <enum_smi>  (1123) 
CC(Nc1ccc[nH+]c1)c1cccc(Cl)c1

>  <enum_code>  (1123) 
M

>  <parent_uuid>  (1123) 
85d0fcce-c5b2-415e-8993-f2f147ae328b

>  <o3da_score>  (1123) 
72.870820180308939

>  <o3da_score_rel>  (1123) 
0.2901093229676609

>  <o3da_align>  (1123) 
0.55512452739512808

>  <RMSD>  (1123) 
0.27955352696816144

>  <CONVERGED>  (1123) 
0

>  <ENERGY>  (1123) 
73.608578047922265

$$$$
ca8fbf9a-7c90-4da7-8fd6-81d5f20eb46b
     RDKit          3D

 16 17  0  0  0  0  0  0  0  0999 V2000
   -4.0852   29.1730    6.4947 C   0  0  0  0  0  0  0  0  0  0  0  0
   -3.4869   28.9093    5.1099 C   0  0  0  0  0  0  0  0  0  0  0  0
   -4.2425   27.8604    4.4136 N   0  0  0  0  0  0  0  0  0  0  0  0
   -4.1612   26.5064    4.6892 C   0  0  0  0  0  0  0  0  0  0  0  0
   -3.1821   25.9354    5.5065 C   0  0  0  0  0  0  0  0  0  0  0  0
   -3.1055   24.5528    5.6841 C   0  0  0  0  0  0  0  0  0  0  0  0
   -4.0029   23.7392    5.0138 C   0  0  0  0  0  0  0  0  0  0  0  0
   -4.9188   24.2908    4.2064 N   0  0  0  0  0  4  0  0  0  0  0  0
   -5.0126   25.6174    4.0235 C   0  0  0  0  0  0  0  0  0  0  0  0
   -3.4835   30.1357    4.2080 C   0  0  0  0  0  0  0  0  0  0  0  0
   -2.3988   30.3465    3.3374 C   0  0  0  0  0  0  0  0  0  0  0  0
   -2.3704   31.4462    2.4757 C   0  0  0  0  0  0  0  0  0  0  0  0
   -3.4320   32.3480    2.4604 C   0  0  0  0  0  0  0  0  0  0  0  0
   -4.5190   32.1435    3.3046 C   0  0  0  0  0  0  0  0  0  0  0  0
   -5.8423   33.2426    3.2771 Cl  0  0  0  0  0  0  0  0  0  0  0  0
   -4.5521   31.0477    4.1702 C   0  0  0  0  0  0  0  0  0  0  0  0
  1  2  1  0
  2  3  1  0
  3  4  1  0
  4  5  2  0
  5  6  1  0
  6  7  2  0
  7  8  1  0
  8  9  2  0
  2 10  1  0
 10 11  2  0
 11 12  1  0
 12 13  2  0
 13 14  1  0
 14 15  1  0
 14 16  2  0
  9  4  1  0
 16 10  1  0
M  CHG  1   8   1
M  END
>  <Energy>  (1124) 
73.959768652274107

>  <Energy_Delta>  (1124) 
2.7113181393141161

>  <std_smi>  (1124) 
CC(Nc1cccnc1)c1cccc(Cl)c1

>  <enum_smi>  (1124) 
CC(Nc1ccc[nH+]c1)c1cccc(Cl)c1

>  <enum_code>  (1124) 
M

>  <parent_uuid>  (1124) 
85d0fcce-c5b2-415e-8993-f2f147ae328b

>  <o3da_score>  (1124) 
73.718833884668044

>  <o3da_score_rel>  (1124) 
0.29348538873761087

>  <o3da_align>  (1124) 
0.52835145628933622

>  <RMSD>  (1124) 
0.17593514622871428

>  <CONVERGED>  (1124) 
0

>  <ENERGY>  (1124) 
74.013627332242123

$$$$
ca8fbf9a-7c90-4da7-8fd6-81d5f20eb46b
     RDKit          3D

 16 17  0  0  0  0  0  0  0  0999 V2000
   -5.4140   28.6897    4.7388 C   0  0  0  0  0  0  0  0  0  0  0  0
   -4.0057   28.0887    4.7587 C   0  0  0  0  0  0  0  0  0  0  0  0
   -3.2540   28.5027    3.5709 N   0  0  0  0  0  0  0  0  0  0  0  0
   -2.7415   29.7672    3.3427 C   0  0  0  0  0  0  0  0  0  0  0  0
   -2.2600   30.0722    2.0633 C   0  0  0  0  0  0  0  0  0  0  0  0
   -1.6729   31.3052    1.7845 C   0  0  0  0  0  0  0  0  0  0  0  0
   -1.5490   32.2292    2.8070 C   0  0  0  0  0  0  0  0  0  0  0  0
   -1.9856   31.9202    4.0361 N   0  0  0  0  0  4  0  0  0  0  0  0
   -2.5555   30.7383    4.3273 C   0  0  0  0  0  0  0  0  0  0  0  0
   -3.9947   26.5689    4.8035 C   0  0  0  0  0  0  0  0  0  0  0  0
   -3.0167   25.9072    5.5678 C   0  0  0  0  0  0  0  0  0  0  0  0
   -2.9620   24.5116    5.6142 C   0  0  0  0  0  0  0  0  0  0  0  0
   -3.8770   23.7527    4.8880 C   0  0  0  0  0  0  0  0  0  0  0  0
   -4.8394   24.3934    4.1140 C   0  0  0  0  0  0  0  0  0  0  0  0
   -5.9620   23.4624    3.2015 Cl  0  0  0  0  0  0  0  0  0  0  0  0
   -4.9001   25.7880    4.0647 C   0  0  0  0  0  0  0  0  0  0  0  0
  1  2  1  0
  2  3  1  0
  3  4  1  0
  4  5  2  0
  5  6  1  0
  6  7  2  0
  7  8  1  0
  8  9  2  0
  2 10  1  0
 10 11  2  0
 11 12  1  0
 12 13  2  0
 13 14  1  0
 14 15  1  0
 14 16  2  0
  9  4  1  0
 16 10  1  0
M  CHG  1   8   1
M  END
>  <Energy>  (1125) 
73.998303679795484

>  <Energy_Delta>  (1125) 
2.7498531668354929

>  <std_smi>  (1125) 
CC(Nc1cccnc1)c1cccc(Cl)c1

>  <enum_smi>  (1125) 
CC(Nc1ccc[nH+]c1)c1cccc(Cl)c1

>  <enum_code>  (1125) 
M

>  <parent_uuid>  (1125) 
85d0fcce-c5b2-415e-8993-f2f147ae328b

>  <o3da_score>  (1125) 
79.737521305726503

>  <o3da_score_rel>  (1125) 
0.31744665785132214

>  <o3da_align>  (1125) 
0.52548376639753991

>  <RMSD>  (1125) 
6.5168132625760333e-05

>  <CONVERGED>  (1125) 
0

>  <ENERGY>  (1125) 
73.998303644145707

$$$$
ca8fbf9a-7c90-4da7-8fd6-81d5f20eb46b
     RDKit          3D

 16 17  0  0  0  0  0  0  0  0999 V2000
   -2.4168   28.7635    5.9476 C   0  0  0  0  0  0  0  0  0  0  0  0
   -3.5416   29.1800    4.9955 C   0  0  0  0  0  0  0  0  0  0  0  0
   -2.9975   29.5350    3.6821 N   0  0  0  0  0  0  0  0  0  0  0  0
   -2.2860   30.6847    3.3893 C   0  0  0  0  0  0  0  0  0  0  0  0
   -1.6283   30.7675    2.1555 C   0  0  0  0  0  0  0  0  0  0  0  0
   -0.9480   31.9222    1.7725 C   0  0  0  0  0  0  0  0  0  0  0  0
   -0.9493   33.0095    2.6283 C   0  0  0  0  0  0  0  0  0  0  0  0
   -1.6049   32.9339    3.7951 N   0  0  0  0  0  4  0  0  0  0  0  0
   -2.2664   31.8308    4.1850 C   0  0  0  0  0  0  0  0  0  0  0  0
   -4.5886   28.0982    4.7827 C   0  0  0  0  0  0  0  0  0  0  0  0
   -5.9420   28.4611    4.6601 C   0  0  0  0  0  0  0  0  0  0  0  0
   -6.9289   27.4962    4.4411 C   0  0  0  0  0  0  0  0  0  0  0  0
   -6.5788   26.1526    4.3292 C   0  0  0  0  0  0  0  0  0  0  0  0
   -5.2420   25.7806    4.4314 C   0  0  0  0  0  0  0  0  0  0  0  0
   -4.8006   24.1249    4.2776 Cl  0  0  0  0  0  0  0  0  0  0  0  0
   -4.2511   26.7401    4.6517 C   0  0  0  0  0  0  0  0  0  0  0  0
  1  2  1  0
  2  3  1  0
  3  4  1  0
  4  5  2  0
  5  6  1  0
  6  7  2  0
  7  8  1  0
  8  9  2  0
  2 10  1  0
 10 11  2  0
 11 12  1  0
 12 13  2  0
 13 14  1  0
 14 15  1  0
 14 16  2  0
  9  4  1  0
 16 10  1  0
M  CHG  1   8   1
M  END
>  <Energy>  (1126) 
73.998303711167438

>  <Energy_Delta>  (1126) 
2.7498531982074468

>  <std_smi>  (1126) 
CC(Nc1cccnc1)c1cccc(Cl)c1

>  <enum_smi>  (1126) 
CC(Nc1ccc[nH+]c1)c1cccc(Cl)c1

>  <enum_code>  (1126) 
M

>  <parent_uuid>  (1126) 
85d0fcce-c5b2-415e-8993-f2f147ae328b

>  <o3da_score>  (1126) 
76.356629381798797

>  <o3da_score_rel>  (1126) 
0.30398683587250303

>  <o3da_align>  (1126) 
0.38219519909197869

>  <RMSD>  (1126) 
6.1973239698674413e-05

>  <CONVERGED>  (1126) 
0

>  <ENERGY>  (1126) 
73.998303644123354

$$$$
ca8fbf9a-7c90-4da7-8fd6-81d5f20eb46b
     RDKit          3D

 16 17  0  0  0  0  0  0  0  0999 V2000
   -5.4628   28.5446    5.1170 C   0  0  0  0  0  0  0  0  0  0  0  0
   -4.0716   28.0093    4.7678 C   0  0  0  0  0  0  0  0  0  0  0  0
   -3.6883   28.4277    3.4096 N   0  0  0  0  0  0  0  0  0  0  0  0
   -3.0665   29.6349    3.1174 C   0  0  0  0  0  0  0  0  0  0  0  0
   -2.9508   30.6955    4.0196 C   0  0  0  0  0  0  0  0  0  0  0  0
   -2.3885   31.9137    3.6337 C   0  0  0  0  0  0  0  0  0  0  0  0
   -1.9654   32.0738    2.3252 C   0  0  0  0  0  0  0  0  0  0  0  0
   -2.1086   31.0639    1.4566 N   0  0  0  0  0  4  0  0  0  0  0  0
   -2.6433   29.8834    1.8061 C   0  0  0  0  0  0  0  0  0  0  0  0
   -4.0298   26.4882    4.8301 C   0  0  0  0  0  0  0  0  0  0  0  0
   -3.0873   25.8433    5.6482 C   0  0  0  0  0  0  0  0  0  0  0  0
   -3.0251   24.4484    5.7047 C   0  0  0  0  0  0  0  0  0  0  0  0
   -3.8987   23.6772    4.9396 C   0  0  0  0  0  0  0  0  0  0  0  0
   -4.8324   24.3040    4.1199 C   0  0  0  0  0  0  0  0  0  0  0  0
   -5.9034   23.3588    3.1620 Cl  0  0  0  0  0  0  0  0  0  0  0  0
   -4.9018   25.6966    4.0611 C   0  0  0  0  0  0  0  0  0  0  0  0
  1  2  1  0
  2  3  1  0
  3  4  1  0
  4  5  2  0
  5  6  1  0
  6  7  2  0
  7  8  1  0
  8  9  2  0
  2 10  1  0
 10 11  2  0
 11 12  1  0
 12 13  2  0
 13 14  1  0
 14 15  1  0
 14 16  2  0
  9  4  1  0
 16 10  1  0
M  CHG  1   8   1
M  END
>  <Energy>  (1127) 
74.013627377125786

>  <Energy_Delta>  (1127) 
2.7651768641657952

>  <std_smi>  (1127) 
CC(Nc1cccnc1)c1cccc(Cl)c1

>  <enum_smi>  (1127) 
CC(Nc1ccc[nH+]c1)c1cccc(Cl)c1

>  <enum_code>  (1127) 
M

>  <parent_uuid>  (1127) 
85d0fcce-c5b2-415e-8993-f2f147ae328b

>  <o3da_score>  (1127) 
72.220637253789292

>  <o3da_score_rel>  (1127) 
0.28752085026828655

>  <o3da_align>  (1127) 
0.47000588272795396

>  <RMSD>  (1127) 
0.17589210821445977

>  <CONVERGED>  (1127) 
0

>  <ENERGY>  (1127) 
73.959768621293222

$$$$
ca8fbf9a-7c90-4da7-8fd6-81d5f20eb46b
     RDKit          3D

 16 17  0  0  0  0  0  0  0  0999 V2000
   -3.5211   29.1146    5.4539 C   0  0  0  0  0  0  0  0  0  0  0  0
   -4.5172   28.1419    4.8154 C   0  0  0  0  0  0  0  0  0  0  0  0
   -4.8989   28.6158    3.4685 N   0  0  0  0  0  0  0  0  0  0  0  0
   -4.0964   28.6632    2.3392 C   0  0  0  0  0  0  0  0  0  0  0  0
   -2.8199   28.1031    2.2520 C   0  0  0  0  0  0  0  0  0  0  0  0
   -2.1046   28.1035    1.0531 C   0  0  0  0  0  0  0  0  0  0  0  0
   -2.6896   28.6493   -0.0752 C   0  0  0  0  0  0  0  0  0  0  0  0
   -3.9251   29.1604    0.0045 N   0  0  0  0  0  4  0  0  0  0  0  0
   -4.6275   29.1731    1.1484 C   0  0  0  0  0  0  0  0  0  0  0  0
   -4.1650   26.6613    4.8274 C   0  0  0  0  0  0  0  0  0  0  0  0
   -3.0580   26.1469    5.5231 C   0  0  0  0  0  0  0  0  0  0  0  0
   -2.7795   24.7759    5.5199 C   0  0  0  0  0  0  0  0  0  0  0  0
   -3.6059   23.8930    4.8278 C   0  0  0  0  0  0  0  0  0  0  0  0
   -4.7153   24.3832    4.1482 C   0  0  0  0  0  0  0  0  0  0  0  0
   -5.7405   23.3041    3.2865 Cl  0  0  0  0  0  0  0  0  0  0  0  0
   -5.0008   25.7487    4.1542 C   0  0  0  0  0  0  0  0  0  0  0  0
  1  2  1  0
  2  3  1  0
  3  4  1  0
  4  5  2  0
  5  6  1  0
  6  7  2  0
  7  8  1  0
  8  9  2  0
  2 10  1  0
 10 11  2  0
 11 12  1  0
 12 13  2  0
 13 14  1  0
 14 15  1  0
 14 16  2  0
  9  4  1  0
 16 10  1  0
M  CHG  1   8   1
M  END
>  <Energy>  (1128) 
77.06519644999895

>  <Energy_Delta>  (1128) 
5.8167459370389594

>  <std_smi>  (1128) 
CC(Nc1cccnc1)c1cccc(Cl)c1

>  <enum_smi>  (1128) 
CC(Nc1ccc[nH+]c1)c1cccc(Cl)c1

>  <enum_code>  (1128) 
M

>  <parent_uuid>  (1128) 
85d0fcce-c5b2-415e-8993-f2f147ae328b

>  <o3da_score>  (1128) 
68.688142781602238

>  <o3da_score_rel>  (1128) 
0.27345747651762148

>  <o3da_align>  (1128) 
0.40544000871878677

>  <RMSD>  (1128) 
0.094497807106694851

>  <CONVERGED>  (1128) 
0

>  <ENERGY>  (1128) 
76.66360711554168

$$$$
ca8fbf9a-7c90-4da7-8fd6-81d5f20eb46b
     RDKit          3D

 16 17  0  0  0  0  0  0  0  0999 V2000
   -6.0951   28.5645    4.4551 C   0  0  0  0  0  0  0  0  0  0  0  0
   -4.8123   28.0729    5.1326 C   0  0  0  0  0  0  0  0  0  0  0  0
   -3.7385   29.0765    4.9778 N   0  0  0  0  0  0  0  0  0  0  0  0
   -3.0831   29.4275    3.8078 C   0  0  0  0  0  0  0  0  0  0  0  0
   -3.2215   28.7551    2.5915 C   0  0  0  0  0  0  0  0  0  0  0  0
   -2.4578   29.1030    1.4758 C   0  0  0  0  0  0  0  0  0  0  0  0
   -1.5275   30.1200    1.5921 C   0  0  0  0  0  0  0  0  0  0  0  0
   -1.3768   30.7443    2.7674 N   0  0  0  0  0  4  0  0  0  0  0  0
   -2.1039   30.4273    3.8505 C   0  0  0  0  0  0  0  0  0  0  0  0
   -4.3366   26.6644    4.8066 C   0  0  0  0  0  0  0  0  0  0  0  0
   -5.0956   25.7613    4.0434 C   0  0  0  0  0  0  0  0  0  0  0  0
   -4.6266   24.4698    3.7802 C   0  0  0  0  0  0  0  0  0  0  0  0
   -3.3943   24.0546    4.2806 C   0  0  0  0  0  0  0  0  0  0  0  0
   -2.6381   24.9299    5.0520 C   0  0  0  0  0  0  0  0  0  0  0  0
   -1.1133   24.4308    5.6716 Cl  0  0  0  0  0  0  0  0  0  0  0  0
   -3.1048   26.2164    5.3227 C   0  0  0  0  0  0  0  0  0  0  0  0
  1  2  1  0
  2  3  1  0
  3  4  1  0
  4  5  2  0
  5  6  1  0
  6  7  2  0
  7  8  1  0
  8  9  2  0
  2 10  1  0
 10 11  2  0
 11 12  1  0
 12 13  2  0
 13 14  1  0
 14 15  1  0
 14 16  2  0
  9  4  1  0
 16 10  1  0
M  CHG  1   8   1
M  END
>  <Energy>  (1129) 
77.065196485944952

>  <Energy_Delta>  (1129) 
5.8167459729849611

>  <std_smi>  (1129) 
CC(Nc1cccnc1)c1cccc(Cl)c1

>  <enum_smi>  (1129) 
CC(Nc1ccc[nH+]c1)c1cccc(Cl)c1

>  <enum_code>  (1129) 
M

>  <parent_uuid>  (1129) 
85d0fcce-c5b2-415e-8993-f2f147ae328b

>  <o3da_score>  (1129) 
97.077546214026242

>  <o3da_score_rel>  (1129) 
0.38647981644541946

>  <o3da_align>  (1129) 
0.51592635370784323

>  <RMSD>  (1129) 
0.094527604380941432

>  <CONVERGED>  (1129) 
0

>  <ENERGY>  (1129) 
76.663607114966652

$$$$
cb5e3b25-296f-4c09-a274-77060bb58d7c
     RDKit          3D

 16 17  0  0  0  0  0  0  0  0999 V2000
   -3.9347   30.3017    5.3755 C   0  0  0  0  0  0  0  0  0  0  0  0
   -3.5905   28.9549    4.7342 C   0  0  0  0  0  0  0  0  0  0  0  0
   -4.6372   27.9630    5.1731 N   0  0  0  0  0  4  0  0  0  0  0  0
   -4.2597   26.5754    4.9025 C   0  0  0  0  0  0  0  0  0  0  0  0
   -4.7498   25.9222    3.7750 C   0  0  0  0  0  0  0  0  0  0  0  0
   -4.3791   24.5966    3.5468 C   0  0  0  0  0  0  0  0  0  0  0  0
   -3.5385   23.9756    4.4583 C   0  0  0  0  0  0  0  0  0  0  0  0
   -3.0577   24.5896    5.5632 N   0  0  0  0  0  0  0  0  0  0  0  0
   -3.4286   25.8702    5.7679 C   0  0  0  0  0  0  0  0  0  0  0  0
   -3.4731   29.0401    3.2258 C   0  0  0  0  0  0  0  0  0  0  0  0
   -2.3354   28.5179    2.5853 C   0  0  0  0  0  0  0  0  0  0  0  0
   -2.2193   28.5518    1.1933 C   0  0  0  0  0  0  0  0  0  0  0  0
   -3.2377   29.1030    0.4185 C   0  0  0  0  0  0  0  0  0  0  0  0
   -4.3687   29.6216    1.0392 C   0  0  0  0  0  0  0  0  0  0  0  0
   -5.6371   30.2921    0.0929 Cl  0  0  0  0  0  0  0  0  0  0  0  0
   -4.4923   29.5936    2.4308 C   0  0  0  0  0  0  0  0  0  0  0  0
  1  2  1  0
  2  3  1  0
  3  4  1  0
  4  5  2  0
  5  6  1  0
  6  7  2  0
  7  8  1  0
  8  9  2  0
  2 10  1  0
 10 11  2  0
 11 12  1  0
 12 13  2  0
 13 14  1  0
 14 15  1  0
 14 16  2  0
  9  4  1  0
 16 10  1  0
M  CHG  1   3   1
M  END
>  <Energy>  (1130) 
49.635962804381208

>  <Energy_Delta>  (1130) 
0

>  <std_smi>  (1130) 
CC(Nc1cccnc1)c1cccc(Cl)c1

>  <enum_smi>  (1130) 
CC([NH2+]c1cccnc1)c1cccc(Cl)c1

>  <enum_code>  (1130) 
M

>  <parent_uuid>  (1130) 
85d0fcce-c5b2-415e-8993-f2f147ae328b

>  <o3da_score>  (1130) 
73.781865742707524

>  <o3da_score_rel>  (1130) 
0.29373632772273522

>  <o3da_align>  (1130) 
0.53320946705005123

>  <RMSD>  (1130) 
0.00011639613589499001

>  <CONVERGED>  (1130) 
0

>  <ENERGY>  (1130) 
49.635962845404478

$$$$
cb5e3b25-296f-4c09-a274-77060bb58d7c
     RDKit          3D

 16 17  0  0  0  0  0  0  0  0999 V2000
   -4.3275   28.2462    6.9709 C   0  0  0  0  0  0  0  0  0  0  0  0
   -3.2555   28.3509    5.8831 C   0  0  0  0  0  0  0  0  0  0  0  0
   -3.9261   28.8609    4.6332 N   0  0  0  0  0  4  0  0  0  0  0  0
   -2.9749   29.3128    3.6172 C   0  0  0  0  0  0  0  0  0  0  0  0
   -2.6298   28.4772    2.5584 C   0  0  0  0  0  0  0  0  0  0  0  0
   -1.7263   28.9378    1.6002 C   0  0  0  0  0  0  0  0  0  0  0  0
   -1.2091   30.2174    1.7357 C   0  0  0  0  0  0  0  0  0  0  0  0
   -1.5368   31.0472    2.7520 N   0  0  0  0  0  0  0  0  0  0  0  0
   -2.4132   30.5851    3.6674 C   0  0  0  0  0  0  0  0  0  0  0  0
   -2.5273   27.0419    5.6539 C   0  0  0  0  0  0  0  0  0  0  0  0
   -1.1213   27.0181    5.6530 C   0  0  0  0  0  0  0  0  0  0  0  0
   -0.4261   25.8310    5.4085 C   0  0  0  0  0  0  0  0  0  0  0  0
   -1.1221   24.6506    5.1568 C   0  0  0  0  0  0  0  0  0  0  0  0
   -2.5125   24.6606    5.1534 C   0  0  0  0  0  0  0  0  0  0  0  0
   -3.3815   23.2131    4.8313 Cl  0  0  0  0  0  0  0  0  0  0  0  0
   -3.2159   25.8427    5.3989 C   0  0  0  0  0  0  0  0  0  0  0  0
  1  2  1  0
  2  3  1  0
  3  4  1  0
  4  5  2  0
  5  6  1  0
  6  7  2  0
  7  8  1  0
  8  9  2  0
  2 10  1  0
 10 11  2  0
 11 12  1  0
 12 13  2  0
 13 14  1  0
 14 15  1  0
 14 16  2  0
  9  4  1  0
 16 10  1  0
M  CHG  1   3   1
M  END
>  <Energy>  (1131) 
49.635962822912674

>  <Energy_Delta>  (1131) 
1.853146613939316e-08

>  <std_smi>  (1131) 
CC(Nc1cccnc1)c1cccc(Cl)c1

>  <enum_smi>  (1131) 
CC([NH2+]c1cccnc1)c1cccc(Cl)c1

>  <enum_code>  (1131) 
M

>  <parent_uuid>  (1131) 
85d0fcce-c5b2-415e-8993-f2f147ae328b

>  <o3da_score>  (1131) 
72.841041550261295

>  <o3da_score_rel>  (1131) 
0.28999076991472905

>  <o3da_align>  (1131) 
0.42631461443199919

>  <RMSD>  (1131) 
6.7759550088715802e-05

>  <CONVERGED>  (1131) 
0

>  <ENERGY>  (1131) 
49.635962794740223

$$$$
cb5e3b25-296f-4c09-a274-77060bb58d7c
     RDKit          3D

 16 17  0  0  0  0  0  0  0  0999 V2000
   -5.2721   25.6929    4.1626 C   0  0  0  0  0  0  0  0  0  0  0  0
   -4.0490   26.5687    4.4476 C   0  0  0  0  0  0  0  0  0  0  0  0
   -4.5507   27.8941    4.9610 N   0  0  0  0  0  4  0  0  0  0  0  0
   -3.5341   28.9458    4.9197 C   0  0  0  0  0  0  0  0  0  0  0  0
   -2.7996   29.2573    6.0607 C   0  0  0  0  0  0  0  0  0  0  0  0
   -1.8382   30.2660    5.9914 C   0  0  0  0  0  0  0  0  0  0  0  0
   -1.6560   30.9283    4.7868 C   0  0  0  0  0  0  0  0  0  0  0  0
   -2.3659   30.6481    3.6704 N   0  0  0  0  0  0  0  0  0  0  0  0
   -3.2903   29.6697    3.7564 C   0  0  0  0  0  0  0  0  0  0  0  0
   -3.0682   25.9211    5.4049 C   0  0  0  0  0  0  0  0  0  0  0  0
   -3.4767   25.3453    6.6209 C   0  0  0  0  0  0  0  0  0  0  0  0
   -2.5394   24.7931    7.4987 C   0  0  0  0  0  0  0  0  0  0  0  0
   -1.1825   24.8137    7.1813 C   0  0  0  0  0  0  0  0  0  0  0  0
   -0.7649   25.3835    5.9838 C   0  0  0  0  0  0  0  0  0  0  0  0
    0.9073   25.4263    5.5905 Cl  0  0  0  0  0  0  0  0  0  0  0  0
   -1.6948   25.9331    5.0992 C   0  0  0  0  0  0  0  0  0  0  0  0
  1  2  1  0
  2  3  1  0
  3  4  1  0
  4  5  2  0
  5  6  1  0
  6  7  2  0
  7  8  1  0
  8  9  2  0
  2 10  1  0
 10 11  2  0
 11 12  1  0
 12 13  2  0
 13 14  1  0
 14 15  1  0
 14 16  2  0
  9  4  1  0
 16 10  1  0
M  CHG  1   3   1
M  END
>  <Energy>  (1132) 
49.778196787542733

>  <Energy_Delta>  (1132) 
0.14223398316152469

>  <std_smi>  (1132) 
CC(Nc1cccnc1)c1cccc(Cl)c1

>  <enum_smi>  (1132) 
CC([NH2+]c1cccnc1)c1cccc(Cl)c1

>  <enum_code>  (1132) 
M

>  <parent_uuid>  (1132) 
85d0fcce-c5b2-415e-8993-f2f147ae328b

>  <o3da_score>  (1132) 
64.450279132738501

>  <o3da_score_rel>  (1132) 
0.2565859255873722

>  <o3da_align>  (1132) 
0.26216885562018871

>  <RMSD>  (1132) 
0.00012972775324349939

>  <CONVERGED>  (1132) 
0

>  <ENERGY>  (1132) 
49.778196862896223

$$$$
cb5e3b25-296f-4c09-a274-77060bb58d7c
     RDKit          3D

 16 17  0  0  0  0  0  0  0  0999 V2000
   -5.7428   28.3711    6.1010 C   0  0  0  0  0  0  0  0  0  0  0  0
   -4.4861   28.2482    5.2352 C   0  0  0  0  0  0  0  0  0  0  0  0
   -4.7232   29.0399    3.9753 N   0  0  0  0  0  4  0  0  0  0  0  0
   -3.4882   29.3549    3.2566 C   0  0  0  0  0  0  0  0  0  0  0  0
   -2.7866   30.5183    3.5640 C   0  0  0  0  0  0  0  0  0  0  0  0
   -1.6215   30.8134    2.8553 C   0  0  0  0  0  0  0  0  0  0  0  0
   -1.2072   29.9366    1.8642 C   0  0  0  0  0  0  0  0  0  0  0  0
   -1.8763   28.8058    1.5473 N   0  0  0  0  0  0  0  0  0  0  0  0
   -3.0014   28.5357    2.2423 C   0  0  0  0  0  0  0  0  0  0  0  0
   -4.1157   26.8081    4.9441 C   0  0  0  0  0  0  0  0  0  0  0  0
   -2.7960   26.3717    5.1554 C   0  0  0  0  0  0  0  0  0  0  0  0
   -2.4202   25.0592    4.8581 C   0  0  0  0  0  0  0  0  0  0  0  0
   -3.3540   24.1622    4.3437 C   0  0  0  0  0  0  0  0  0  0  0  0
   -4.6625   24.5805    4.1301 C   0  0  0  0  0  0  0  0  0  0  0  0
   -5.8211   23.4859    3.4870 Cl  0  0  0  0  0  0  0  0  0  0  0  0
   -5.0469   25.8915    4.4242 C   0  0  0  0  0  0  0  0  0  0  0  0
  1  2  1  0
  2  3  1  0
  3  4  1  0
  4  5  2  0
  5  6  1  0
  6  7  2  0
  7  8  1  0
  8  9  2  0
  2 10  1  0
 10 11  2  0
 11 12  1  0
 12 13  2  0
 13 14  1  0
 14 15  1  0
 14 16  2  0
  9  4  1  0
 16 10  1  0
M  CHG  1   3   1
M  END
>  <Energy>  (1133) 
49.816646058763979

>  <Energy_Delta>  (1133) 
0.180683254382771

>  <std_smi>  (1133) 
CC(Nc1cccnc1)c1cccc(Cl)c1

>  <enum_smi>  (1133) 
CC([NH2+]c1cccnc1)c1cccc(Cl)c1

>  <enum_code>  (1133) 
M

>  <parent_uuid>  (1133) 
85d0fcce-c5b2-415e-8993-f2f147ae328b

>  <o3da_score>  (1133) 
84.934626158209085

>  <o3da_score_rel>  (1133) 
0.33813708738697162

>  <o3da_align>  (1133) 
0.49762231961790526

>  <RMSD>  (1133) 
6.700283228930622e-05

>  <CONVERGED>  (1133) 
0

>  <ENERGY>  (1133) 
49.816646028950366

$$$$
cb5e3b25-296f-4c09-a274-77060bb58d7c
     RDKit          3D

 16 17  0  0  0  0  0  0  0  0999 V2000
   -3.9678   30.2760    5.4704 C   0  0  0  0  0  0  0  0  0  0  0  0
   -3.5658   28.9937    4.7366 C   0  0  0  0  0  0  0  0  0  0  0  0
   -4.6077   27.9492    5.0430 N   0  0  0  0  0  4  0  0  0  0  0  0
   -4.1526   26.5874    4.7617 C   0  0  0  0  0  0  0  0  0  0  0  0
   -3.4882   25.8625    5.7483 C   0  0  0  0  0  0  0  0  0  0  0  0
   -3.0785   24.5581    5.4698 C   0  0  0  0  0  0  0  0  0  0  0  0
   -3.3540   24.0287    4.2182 C   0  0  0  0  0  0  0  0  0  0  0  0
   -4.0017   24.7135    3.2494 N   0  0  0  0  0  0  0  0  0  0  0  0
   -4.3912   25.9737    3.5356 C   0  0  0  0  0  0  0  0  0  0  0  0
   -3.3886   29.2044    3.2467 C   0  0  0  0  0  0  0  0  0  0  0  0
   -2.2233   28.7408    2.6111 C   0  0  0  0  0  0  0  0  0  0  0  0
   -2.0536   28.8883    1.2321 C   0  0  0  0  0  0  0  0  0  0  0  0
   -3.0438   29.4987    0.4653 C   0  0  0  0  0  0  0  0  0  0  0  0
   -4.2010   29.9620    1.0810 C   0  0  0  0  0  0  0  0  0  0  0  0
   -5.4338   30.7080    0.1442 Cl  0  0  0  0  0  0  0  0  0  0  0  0
   -4.3793   29.8181    2.4595 C   0  0  0  0  0  0  0  0  0  0  0  0
  1  2  1  0
  2  3  1  0
  3  4  1  0
  4  5  2  0
  5  6  1  0
  6  7  2  0
  7  8  1  0
  8  9  2  0
  2 10  1  0
 10 11  2  0
 11 12  1  0
 12 13  2  0
 13 14  1  0
 14 15  1  0
 14 16  2  0
  9  4  1  0
 16 10  1  0
M  CHG  1   3   1
M  END
>  <Energy>  (1134) 
49.816646075891413

>  <Energy_Delta>  (1134) 
0.18068327151020469

>  <std_smi>  (1134) 
CC(Nc1cccnc1)c1cccc(Cl)c1

>  <enum_smi>  (1134) 
CC([NH2+]c1cccnc1)c1cccc(Cl)c1

>  <enum_code>  (1134) 
M

>  <parent_uuid>  (1134) 
85d0fcce-c5b2-415e-8993-f2f147ae328b

>  <o3da_score>  (1134) 
68.007466414319666

>  <o3da_score_rel>  (1134) 
0.27074760499999867

>  <o3da_align>  (1134) 
0.53361942693326958

>  <RMSD>  (1134) 
0.0001194798260754839

>  <CONVERGED>  (1134) 
0

>  <ENERGY>  (1134) 
49.816646085324017

$$$$
cb5e3b25-296f-4c09-a274-77060bb58d7c
     RDKit          3D

 16 17  0  0  0  0  0  0  0  0999 V2000
   -3.8703   30.3112    5.4515 C   0  0  0  0  0  0  0  0  0  0  0  0
   -3.5367   28.9858    4.7615 C   0  0  0  0  0  0  0  0  0  0  0  0
   -4.5853   27.9849    5.1710 N   0  0  0  0  0  4  0  0  0  0  0  0
   -4.1960   26.6012    4.8970 C   0  0  0  0  0  0  0  0  0  0  0  0
   -3.4576   25.8893    5.8392 C   0  0  0  0  0  0  0  0  0  0  0  0
   -3.1121   24.5649    5.5679 C   0  0  0  0  0  0  0  0  0  0  0  0
   -3.5251   24.0031    4.3693 C   0  0  0  0  0  0  0  0  0  0  0  0
   -4.2490   24.6744    3.4460 N   0  0  0  0  0  0  0  0  0  0  0  0
   -4.5716   25.9550    3.7230 C   0  0  0  0  0  0  0  0  0  0  0  0
   -3.4298   29.1198    3.2559 C   0  0  0  0  0  0  0  0  0  0  0  0
   -4.4317   29.7370    2.4861 C   0  0  0  0  0  0  0  0  0  0  0  0
   -4.3180   29.8095    1.0948 C   0  0  0  0  0  0  0  0  0  0  0  0
   -3.2080   29.2650    0.4513 C   0  0  0  0  0  0  0  0  0  0  0  0
   -2.2109   28.6510    1.2008 C   0  0  0  0  0  0  0  0  0  0  0  0
   -0.8407   27.9728    0.4164 Cl  0  0  0  0  0  0  0  0  0  0  0  0
   -2.3159   28.5755    2.5911 C   0  0  0  0  0  0  0  0  0  0  0  0
  1  2  1  0
  2  3  1  0
  3  4  1  0
  4  5  2  0
  5  6  1  0
  6  7  2  0
  7  8  1  0
  8  9  2  0
  2 10  1  0
 10 11  2  0
 11 12  1  0
 12 13  2  0
 13 14  1  0
 14 15  1  0
 14 16  2  0
  9  4  1  0
 16 10  1  0
M  CHG  1   3   1
M  END
>  <Energy>  (1135) 
49.988446711813324

>  <Energy_Delta>  (1135) 
0.35248390743211644

>  <std_smi>  (1135) 
CC(Nc1cccnc1)c1cccc(Cl)c1

>  <enum_smi>  (1135) 
CC([NH2+]c1cccnc1)c1cccc(Cl)c1

>  <enum_code>  (1135) 
M

>  <parent_uuid>  (1135) 
85d0fcce-c5b2-415e-8993-f2f147ae328b

>  <o3da_score>  (1135) 
73.669081360971319

>  <o3da_score_rel>  (1135) 
0.29328731671193753

>  <o3da_align>  (1135) 
0.57974954124529365

>  <RMSD>  (1135) 
6.9869255125313824e-05

>  <CONVERGED>  (1135) 
0

>  <ENERGY>  (1135) 
49.988446657276739

$$$$
cb5e3b25-296f-4c09-a274-77060bb58d7c
     RDKit          3D

 16 17  0  0  0  0  0  0  0  0999 V2000
   -4.2122   31.5019    3.8043 C   0  0  0  0  0  0  0  0  0  0  0  0
   -3.4581   30.1734    3.7153 C   0  0  0  0  0  0  0  0  0  0  0  0
   -1.9774   30.4032    3.8370 N   0  0  0  0  0  4  0  0  0  0  0  0
   -1.3699   31.0186    2.6618 C   0  0  0  0  0  0  0  0  0  0  0  0
   -1.0444   32.3720    2.6711 C   0  0  0  0  0  0  0  0  0  0  0  0
   -0.4474   32.9316    1.5407 C   0  0  0  0  0  0  0  0  0  0  0  0
   -0.1940   32.1141    0.4495 C   0  0  0  0  0  0  0  0  0  0  0  0
   -0.4942   30.7960    0.4242 N   0  0  0  0  0  0  0  0  0  0  0  0
   -1.0677   30.2719    1.5268 C   0  0  0  0  0  0  0  0  0  0  0  0
   -3.8938   29.1802    4.7763 C   0  0  0  0  0  0  0  0  0  0  0  0
   -4.2153   27.8622    4.4075 C   0  0  0  0  0  0  0  0  0  0  0  0
   -4.5847   26.9202    5.3714 C   0  0  0  0  0  0  0  0  0  0  0  0
   -4.6327   27.2765    6.7177 C   0  0  0  0  0  0  0  0  0  0  0  0
   -4.3129   28.5756    7.0963 C   0  0  0  0  0  0  0  0  0  0  0  0
   -4.3591   29.0237    8.7549 Cl  0  0  0  0  0  0  0  0  0  0  0  0
   -3.9434   29.5241    6.1390 C   0  0  0  0  0  0  0  0  0  0  0  0
  1  2  1  0
  2  3  1  0
  3  4  1  0
  4  5  2  0
  5  6  1  0
  6  7  2  0
  7  8  1  0
  8  9  2  0
  2 10  1  0
 10 11  2  0
 11 12  1  0
 12 13  2  0
 13 14  1  0
 14 15  1  0
 14 16  2  0
  9  4  1  0
 16 10  1  0
M  CHG  1   3   1
M  END
>  <Energy>  (1136) 
50.265318335481204

>  <Energy_Delta>  (1136) 
0.62935553109999631

>  <std_smi>  (1136) 
CC(Nc1cccnc1)c1cccc(Cl)c1

>  <enum_smi>  (1136) 
CC([NH2+]c1cccnc1)c1cccc(Cl)c1

>  <enum_code>  (1136) 
M

>  <parent_uuid>  (1136) 
85d0fcce-c5b2-415e-8993-f2f147ae328b

>  <o3da_score>  (1136) 
77.947533618029766

>  <o3da_score_rel>  (1136) 
0.31032045678876746

>  <o3da_align>  (1136) 
0.44785393616919283

>  <RMSD>  (1136) 
8.0811589634425523e-05

>  <CONVERGED>  (1136) 
0

>  <ENERGY>  (1136) 
50.265318323286003

$$$$
cb5e3b25-296f-4c09-a274-77060bb58d7c
     RDKit          3D

 16 17  0  0  0  0  0  0  0  0999 V2000
   -2.8163   27.6799    5.6522 C   0  0  0  0  0  0  0  0  0  0  0  0
   -3.5483   28.7831    4.8850 C   0  0  0  0  0  0  0  0  0  0  0  0
   -4.8656   28.2754    4.3684 N   0  0  0  0  0  4  0  0  0  0  0  0
   -5.8800   28.0889    5.4003 C   0  0  0  0  0  0  0  0  0  0  0  0
   -6.1741   26.8113    5.8684 C   0  0  0  0  0  0  0  0  0  0  0  0
   -7.1616   26.6589    6.8426 C   0  0  0  0  0  0  0  0  0  0  0  0
   -7.8196   27.7890    7.3043 C   0  0  0  0  0  0  0  0  0  0  0  0
   -7.5550   29.0368    6.8559 N   0  0  0  0  0  0  0  0  0  0  0  0
   -6.6000   29.1644    5.9121 C   0  0  0  0  0  0  0  0  0  0  0  0
   -2.7372   29.3264    3.7235 C   0  0  0  0  0  0  0  0  0  0  0  0
   -2.5862   30.7154    3.5678 C   0  0  0  0  0  0  0  0  0  0  0  0
   -1.8736   31.2401    2.4861 C   0  0  0  0  0  0  0  0  0  0  0  0
   -1.3068   30.3880    1.5403 C   0  0  0  0  0  0  0  0  0  0  0  0
   -1.4525   29.0124    1.6803 C   0  0  0  0  0  0  0  0  0  0  0  0
   -0.7662   27.9522    0.5145 Cl  0  0  0  0  0  0  0  0  0  0  0  0
   -2.1625   28.4792    2.7593 C   0  0  0  0  0  0  0  0  0  0  0  0
  1  2  1  0
  2  3  1  0
  3  4  1  0
  4  5  2  0
  5  6  1  0
  6  7  2  0
  7  8  1  0
  8  9  2  0
  2 10  1  0
 10 11  2  0
 11 12  1  0
 12 13  2  0
 13 14  1  0
 14 15  1  0
 14 16  2  0
  9  4  1  0
 16 10  1  0
M  CHG  1   3   1
M  END
>  <Energy>  (1137) 
50.265318335515623

>  <Energy_Delta>  (1137) 
0.629355531134415

>  <std_smi>  (1137) 
CC(Nc1cccnc1)c1cccc(Cl)c1

>  <enum_smi>  (1137) 
CC([NH2+]c1cccnc1)c1cccc(Cl)c1

>  <enum_code>  (1137) 
M

>  <parent_uuid>  (1137) 
85d0fcce-c5b2-415e-8993-f2f147ae328b

>  <o3da_score>  (1137) 
65.072546828280537

>  <o3da_score_rel>  (1137) 
0.25906326369625665

>  <o3da_align>  (1137) 
0.44049030769101366

>  <RMSD>  (1137) 
6.9809839368190169e-05

>  <CONVERGED>  (1137) 
0

>  <ENERGY>  (1137) 
50.265318327506357

$$$$
cb5e3b25-296f-4c09-a274-77060bb58d7c
     RDKit          3D

 16 17  0  0  0  0  0  0  0  0999 V2000
   -1.5987   30.3090    5.3213 C   0  0  0  0  0  0  0  0  0  0  0  0
   -2.6247   29.8797    4.2701 C   0  0  0  0  0  0  0  0  0  0  0  0
   -2.9172   31.0161    3.3307 N   0  0  0  0  0  4  0  0  0  0  0  0
   -1.8311   31.3229    2.4062 C   0  0  0  0  0  0  0  0  0  0  0  0
   -1.0106   32.4244    2.6332 C   0  0  0  0  0  0  0  0  0  0  0  0
    0.0094   32.7066    1.7237 C   0  0  0  0  0  0  0  0  0  0  0  0
    0.1635   31.8803    0.6206 C   0  0  0  0  0  0  0  0  0  0  0  0
   -0.6285   30.8118    0.3777 N   0  0  0  0  0  0  0  0  0  0  0  0
   -1.6109   30.5561    1.2658 C   0  0  0  0  0  0  0  0  0  0  0  0
   -3.9293   29.3954    4.8753 C   0  0  0  0  0  0  0  0  0  0  0  0
   -4.5936   30.1057    5.8906 C   0  0  0  0  0  0  0  0  0  0  0  0
   -5.8147   29.6512    6.3971 C   0  0  0  0  0  0  0  0  0  0  0  0
   -6.3951   28.4883    5.8938 C   0  0  0  0  0  0  0  0  0  0  0  0
   -5.7518   27.7803    4.8850 C   0  0  0  0  0  0  0  0  0  0  0  0
   -6.4634   26.3506    4.2505 Cl  0  0  0  0  0  0  0  0  0  0  0  0
   -4.5307   28.2265    4.3741 C   0  0  0  0  0  0  0  0  0  0  0  0
  1  2  1  0
  2  3  1  0
  3  4  1  0
  4  5  2  0
  5  6  1  0
  6  7  2  0
  7  8  1  0
  8  9  2  0
  2 10  1  0
 10 11  2  0
 11 12  1  0
 12 13  2  0
 13 14  1  0
 14 15  1  0
 14 16  2  0
  9  4  1  0
 16 10  1  0
M  CHG  1   3   1
M  END
>  <Energy>  (1138) 
50.472878915404351

>  <Energy_Delta>  (1138) 
0.83691611102314312

>  <std_smi>  (1138) 
CC(Nc1cccnc1)c1cccc(Cl)c1

>  <enum_smi>  (1138) 
CC([NH2+]c1cccnc1)c1cccc(Cl)c1

>  <enum_code>  (1138) 
M

>  <parent_uuid>  (1138) 
85d0fcce-c5b2-415e-8993-f2f147ae328b

>  <o3da_score>  (1138) 
76.661721407762769

>  <o3da_score_rel>  (1138) 
0.3052014515564796

>  <o3da_align>  (1138) 
0.53591185506348415

>  <RMSD>  (1138) 
5.8729421669518495e-05

>  <CONVERGED>  (1138) 
0

>  <ENERGY>  (1138) 
50.472878912820626

$$$$
cb5e3b25-296f-4c09-a274-77060bb58d7c
     RDKit          3D

 16 17  0  0  0  0  0  0  0  0999 V2000
   -4.2148   31.2505    3.6919 C   0  0  0  0  0  0  0  0  0  0  0  0
   -3.4189   29.9519    3.5416 C   0  0  0  0  0  0  0  0  0  0  0  0
   -1.9487   30.2182    3.7049 N   0  0  0  0  0  4  0  0  0  0  0  0
   -1.3417   30.9309    2.5860 C   0  0  0  0  0  0  0  0  0  0  0  0
   -1.0567   32.2891    2.6947 C   0  0  0  0  0  0  0  0  0  0  0  0
   -0.4590   32.9431    1.6166 C   0  0  0  0  0  0  0  0  0  0  0  0
   -0.1643   32.2113    0.4760 C   0  0  0  0  0  0  0  0  0  0  0  0
   -0.4247   30.8902    0.3544 N   0  0  0  0  0  0  0  0  0  0  0  0
   -0.9997   30.2741    1.4075 C   0  0  0  0  0  0  0  0  0  0  0  0
   -3.8364   28.8806    4.5320 C   0  0  0  0  0  0  0  0  0  0  0  0
   -4.0050   29.1507    5.9013 C   0  0  0  0  0  0  0  0  0  0  0  0
   -4.3511   28.1304    6.7921 C   0  0  0  0  0  0  0  0  0  0  0  0
   -4.5257   26.8261    6.3331 C   0  0  0  0  0  0  0  0  0  0  0  0
   -4.3553   26.5444    4.9824 C   0  0  0  0  0  0  0  0  0  0  0  0
   -4.5585   24.9378    4.4075 Cl  0  0  0  0  0  0  0  0  0  0  0  0
   -4.0108   27.5580    4.0852 C   0  0  0  0  0  0  0  0  0  0  0  0
  1  2  1  0
  2  3  1  0
  3  4  1  0
  4  5  2  0
  5  6  1  0
  6  7  2  0
  7  8  1  0
  8  9  2  0
  2 10  1  0
 10 11  2  0
 11 12  1  0
 12 13  2  0
 13 14  1  0
 14 15  1  0
 14 16  2  0
  9  4  1  0
 16 10  1  0
M  CHG  1   3   1
M  END
>  <Energy>  (1139) 
50.472878921178989

>  <Energy_Delta>  (1139) 
0.83691611679778077

>  <std_smi>  (1139) 
CC(Nc1cccnc1)c1cccc(Cl)c1

>  <enum_smi>  (1139) 
CC([NH2+]c1cccnc1)c1cccc(Cl)c1

>  <enum_code>  (1139) 
M

>  <parent_uuid>  (1139) 
85d0fcce-c5b2-415e-8993-f2f147ae328b

>  <o3da_score>  (1139) 
77.42766955419809

>  <o3da_score_rel>  (1139) 
0.30825080241654762

>  <o3da_align>  (1139) 
0.43304561362648092

>  <RMSD>  (1139) 
7.3035514825995604e-05

>  <CONVERGED>  (1139) 
0

>  <ENERGY>  (1139) 
50.472878913425994

$$$$
cb5e3b25-296f-4c09-a274-77060bb58d7c
     RDKit          3D

 16 17  0  0  0  0  0  0  0  0999 V2000
   -5.5493   28.5651    4.8537 C   0  0  0  0  0  0  0  0  0  0  0  0
   -4.1691   28.0194    4.4815 C   0  0  0  0  0  0  0  0  0  0  0  0
   -3.8265   28.3822    3.0638 N   0  0  0  0  0  4  0  0  0  0  0  0
   -3.4890   29.7886    2.8720 C   0  0  0  0  0  0  0  0  0  0  0  0
   -2.1994   30.2385    3.1438 C   0  0  0  0  0  0  0  0  0  0  0  0
   -1.8932   31.5834    2.9328 C   0  0  0  0  0  0  0  0  0  0  0  0
   -2.8868   32.4229    2.4523 C   0  0  0  0  0  0  0  0  0  0  0  0
   -4.1417   32.0037    2.1741 N   0  0  0  0  0  0  0  0  0  0  0  0
   -4.4189   30.6998    2.3815 C   0  0  0  0  0  0  0  0  0  0  0  0
   -4.0727   26.5138    4.6446 C   0  0  0  0  0  0  0  0  0  0  0  0
   -2.9910   25.9565    5.3488 C   0  0  0  0  0  0  0  0  0  0  0  0
   -2.8623   24.5714    5.4819 C   0  0  0  0  0  0  0  0  0  0  0  0
   -3.8063   23.7213    4.9092 C   0  0  0  0  0  0  0  0  0  0  0  0
   -4.8787   24.2595    4.2065 C   0  0  0  0  0  0  0  0  0  0  0  0
   -6.0436   23.2201    3.4878 Cl  0  0  0  0  0  0  0  0  0  0  0  0
   -5.0158   25.6434    4.0695 C   0  0  0  0  0  0  0  0  0  0  0  0
  1  2  1  0
  2  3  1  0
  3  4  1  0
  4  5  2  0
  5  6  1  0
  6  7  2  0
  7  8  1  0
  8  9  2  0
  2 10  1  0
 10 11  2  0
 11 12  1  0
 12 13  2  0
 13 14  1  0
 14 15  1  0
 14 16  2  0
  9  4  1  0
 16 10  1  0
M  CHG  1   3   1
M  END
>  <Energy>  (1140) 
50.474750850814054

>  <Energy_Delta>  (1140) 
0.8387880464328461

>  <std_smi>  (1140) 
CC(Nc1cccnc1)c1cccc(Cl)c1

>  <enum_smi>  (1140) 
CC([NH2+]c1cccnc1)c1cccc(Cl)c1

>  <enum_code>  (1140) 
M

>  <parent_uuid>  (1140) 
85d0fcce-c5b2-415e-8993-f2f147ae328b

>  <o3da_score>  (1140) 
72.861398156972243

>  <o3da_score_rel>  (1140) 
0.2900718125237764

>  <o3da_align>  (1140) 
0.49651235574599062

>  <RMSD>  (1140) 
6.9099446433890856e-05

>  <CONVERGED>  (1140) 
0

>  <ENERGY>  (1140) 
50.474750845817205

$$$$
cb5e3b25-296f-4c09-a274-77060bb58d7c
     RDKit          3D

 16 17  0  0  0  0  0  0  0  0999 V2000
   -2.8766   29.4752    6.2557 C   0  0  0  0  0  0  0  0  0  0  0  0
   -3.4231   28.9963    4.9092 C   0  0  0  0  0  0  0  0  0  0  0  0
   -2.4959   29.3943    3.7953 N   0  0  0  0  0  4  0  0  0  0  0  0
   -2.5254   30.8169    3.4729 C   0  0  0  0  0  0  0  0  0  0  0  0
   -3.5149   31.3197    2.6316 C   0  0  0  0  0  0  0  0  0  0  0  0
   -3.5112   32.6798    2.3198 C   0  0  0  0  0  0  0  0  0  0  0  0
   -2.5146   33.4811    2.8561 C   0  0  0  0  0  0  0  0  0  0  0  0
   -1.5406   33.0106    3.6672 N   0  0  0  0  0  0  0  0  0  0  0  0
   -1.5584   31.6928    3.9556 C   0  0  0  0  0  0  0  0  0  0  0  0
   -3.6343   27.4943    4.8650 C   0  0  0  0  0  0  0  0  0  0  0  0
   -4.8576   26.9752    4.4061 C   0  0  0  0  0  0  0  0  0  0  0  0
   -5.0625   25.5953    4.3235 C   0  0  0  0  0  0  0  0  0  0  0  0
   -4.0487   24.7128    4.6908 C   0  0  0  0  0  0  0  0  0  0  0  0
   -2.8325   25.2131    5.1423 C   0  0  0  0  0  0  0  0  0  0  0  0
   -1.5716   24.1338    5.5885 Cl  0  0  0  0  0  0  0  0  0  0  0  0
   -2.6194   26.5914    5.2291 C   0  0  0  0  0  0  0  0  0  0  0  0
  1  2  1  0
  2  3  1  0
  3  4  1  0
  4  5  2  0
  5  6  1  0
  6  7  2  0
  7  8  1  0
  8  9  2  0
  2 10  1  0
 10 11  2  0
 11 12  1  0
 12 13  2  0
 13 14  1  0
 14 15  1  0
 14 16  2  0
  9  4  1  0
 16 10  1  0
M  CHG  1   3   1
M  END
>  <Energy>  (1141) 
50.474750868128666

>  <Energy_Delta>  (1141) 
0.83878806374745807

>  <std_smi>  (1141) 
CC(Nc1cccnc1)c1cccc(Cl)c1

>  <enum_smi>  (1141) 
CC([NH2+]c1cccnc1)c1cccc(Cl)c1

>  <enum_code>  (1141) 
M

>  <parent_uuid>  (1141) 
85d0fcce-c5b2-415e-8993-f2f147ae328b

>  <o3da_score>  (1141) 
68.85568429927298

>  <o3da_score_rel>  (1141) 
0.27412448364256076

>  <o3da_align>  (1141) 
0.57543772980189256

>  <RMSD>  (1141) 
0.00029855337672274627

>  <CONVERGED>  (1141) 
0

>  <ENERGY>  (1141) 
50.474751397053758

$$$$
cb5e3b25-296f-4c09-a274-77060bb58d7c
     RDKit          3D

 16 17  0  0  0  0  0  0  0  0999 V2000
   -5.7631   28.4820    5.0375 C   0  0  0  0  0  0  0  0  0  0  0  0
   -4.3386   28.0536    4.6782 C   0  0  0  0  0  0  0  0  0  0  0  0
   -3.9490   28.6051    3.3357 N   0  0  0  0  0  4  0  0  0  0  0  0
   -3.6905   30.0408    3.3310 C   0  0  0  0  0  0  0  0  0  0  0  0
   -2.4482   30.5260    3.7317 C   0  0  0  0  0  0  0  0  0  0  0  0
   -2.2162   31.9015    3.6989 C   0  0  0  0  0  0  0  0  0  0  0  0
   -3.2332   32.7360    3.2604 C   0  0  0  0  0  0  0  0  0  0  0  0
   -4.4426   32.2839    2.8588 N   0  0  0  0  0  0  0  0  0  0  0  0
   -4.6480   30.9511    2.8949 C   0  0  0  0  0  0  0  0  0  0  0  0
   -4.1569   26.5469    4.6604 C   0  0  0  0  0  0  0  0  0  0  0  0
   -5.0672   25.6894    4.0183 C   0  0  0  0  0  0  0  0  0  0  0  0
   -4.8459   24.3094    3.9868 C   0  0  0  0  0  0  0  0  0  0  0  0
   -3.7114   23.7655    4.5863 C   0  0  0  0  0  0  0  0  0  0  0  0
   -2.7998   24.6034    5.2185 C   0  0  0  0  0  0  0  0  0  0  0  0
   -1.3920   23.9451    5.9517 Cl  0  0  0  0  0  0  0  0  0  0  0  0
   -3.0138   25.9832    5.2560 C   0  0  0  0  0  0  0  0  0  0  0  0
  1  2  1  0
  2  3  1  0
  3  4  1  0
  4  5  2  0
  5  6  1  0
  6  7  2  0
  7  8  1  0
  8  9  2  0
  2 10  1  0
 10 11  2  0
 11 12  1  0
 12 13  2  0
 13 14  1  0
 14 15  1  0
 14 16  2  0
  9  4  1  0
 16 10  1  0
M  CHG  1   3   1
M  END
>  <Energy>  (1142) 
50.509379530918338

>  <Energy_Delta>  (1142) 
0.87341672653712976

>  <std_smi>  (1142) 
CC(Nc1cccnc1)c1cccc(Cl)c1

>  <enum_smi>  (1142) 
CC([NH2+]c1cccnc1)c1cccc(Cl)c1

>  <enum_code>  (1142) 
M

>  <parent_uuid>  (1142) 
85d0fcce-c5b2-415e-8993-f2f147ae328b

>  <o3da_score>  (1142) 
69.55745342804947

>  <o3da_score_rel>  (1142) 
0.27691832850838216

>  <o3da_align>  (1142) 
0.3587419874469075

>  <RMSD>  (1142) 
7.235287013358388e-05

>  <CONVERGED>  (1142) 
0

>  <ENERGY>  (1142) 
50.50937952738358

$$$$
cb5e3b25-296f-4c09-a274-77060bb58d7c
     RDKit          3D

 16 17  0  0  0  0  0  0  0  0999 V2000
   -2.4982   28.1906    6.2095 C   0  0  0  0  0  0  0  0  0  0  0  0
   -2.8935   28.1470    4.7319 C   0  0  0  0  0  0  0  0  0  0  0  0
   -4.3783   27.9614    4.5925 N   0  0  0  0  0  4  0  0  0  0  0  0
   -4.8470   26.6201    4.9234 C   0  0  0  0  0  0  0  0  0  0  0  0
   -4.7746   25.6033    3.9745 C   0  0  0  0  0  0  0  0  0  0  0  0
   -5.2484   24.3334    4.3059 C   0  0  0  0  0  0  0  0  0  0  0  0
   -5.7816   24.1328    5.5703 C   0  0  0  0  0  0  0  0  0  0  0  0
   -5.8689   25.1088    6.5019 N   0  0  0  0  0  0  0  0  0  0  0  0
   -5.4083   26.3306    6.1630 C   0  0  0  0  0  0  0  0  0  0  0  0
   -2.4818   29.3925    3.9687 C   0  0  0  0  0  0  0  0  0  0  0  0
   -2.7135   30.6871    4.4652 C   0  0  0  0  0  0  0  0  0  0  0  0
   -2.3579   31.8124    3.7158 C   0  0  0  0  0  0  0  0  0  0  0  0
   -1.7749   31.6641    2.4586 C   0  0  0  0  0  0  0  0  0  0  0  0
   -1.5468   30.3893    1.9531 C   0  0  0  0  0  0  0  0  0  0  0  0
   -0.8385   30.1946    0.3996 Cl  0  0  0  0  0  0  0  0  0  0  0  0
   -1.8977   29.2596    2.6958 C   0  0  0  0  0  0  0  0  0  0  0  0
  1  2  1  0
  2  3  1  0
  3  4  1  0
  4  5  2  0
  5  6  1  0
  6  7  2  0
  7  8  1  0
  8  9  2  0
  2 10  1  0
 10 11  2  0
 11 12  1  0
 12 13  2  0
 13 14  1  0
 14 15  1  0
 14 16  2  0
  9  4  1  0
 16 10  1  0
M  CHG  1   3   1
M  END
>  <Energy>  (1143) 
50.509379550083004

>  <Energy_Delta>  (1143) 
0.87341674570179606

>  <std_smi>  (1143) 
CC(Nc1cccnc1)c1cccc(Cl)c1

>  <enum_smi>  (1143) 
CC([NH2+]c1cccnc1)c1cccc(Cl)c1

>  <enum_code>  (1143) 
M

>  <parent_uuid>  (1143) 
85d0fcce-c5b2-415e-8993-f2f147ae328b

>  <o3da_score>  (1143) 
64.443160594901187

>  <o3da_score_rel>  (1143) 
0.25655758565394765

>  <o3da_align>  (1143) 
0.63073162032400065

>  <RMSD>  (1143) 
6.7187523137947328e-05

>  <CONVERGED>  (1143) 
0

>  <ENERGY>  (1143) 
50.509379528559471

$$$$
cb5e3b25-296f-4c09-a274-77060bb58d7c
     RDKit          3D

 16 17  0  0  0  0  0  0  0  0999 V2000
   -5.9190   28.5140    4.9888 C   0  0  0  0  0  0  0  0  0  0  0  0
   -4.4923   28.0607    5.3086 C   0  0  0  0  0  0  0  0  0  0  0  0
   -3.4898   29.0939    4.8626 N   0  0  0  0  0  4  0  0  0  0  0  0
   -3.4172   29.3267    3.4193 C   0  0  0  0  0  0  0  0  0  0  0  0
   -4.1203   30.3867    2.8507 C   0  0  0  0  0  0  0  0  0  0  0  0
   -4.0080   30.6193    1.4793 C   0  0  0  0  0  0  0  0  0  0  0  0
   -3.1863   29.7908    0.7308 C   0  0  0  0  0  0  0  0  0  0  0  0
   -2.4829   28.7675    1.2637 N   0  0  0  0  0  0  0  0  0  0  0  0
   -2.6035   28.5576    2.5919 C   0  0  0  0  0  0  0  0  0  0  0  0
   -4.1231   26.6554    4.8777 C   0  0  0  0  0  0  0  0  0  0  0  0
   -4.6778   26.0373    3.7446 C   0  0  0  0  0  0  0  0  0  0  0  0
   -4.2775   24.7534    3.3615 C   0  0  0  0  0  0  0  0  0  0  0  0
   -3.3174   24.0657    4.1007 C   0  0  0  0  0  0  0  0  0  0  0  0
   -2.7605   24.6633    5.2247 C   0  0  0  0  0  0  0  0  0  0  0  0
   -1.5698   23.8305    6.1421 Cl  0  0  0  0  0  0  0  0  0  0  0  0
   -3.1543   25.9460    5.6137 C   0  0  0  0  0  0  0  0  0  0  0  0
  1  2  1  0
  2  3  1  0
  3  4  1  0
  4  5  2  0
  5  6  1  0
  6  7  2  0
  7  8  1  0
  8  9  2  0
  2 10  1  0
 10 11  2  0
 11 12  1  0
 12 13  2  0
 13 14  1  0
 14 15  1  0
 14 16  2  0
  9  4  1  0
 16 10  1  0
M  CHG  1   3   1
M  END
>  <Energy>  (1144) 
52.014759417183065

>  <Energy_Delta>  (1144) 
2.3787966128018567

>  <std_smi>  (1144) 
CC(Nc1cccnc1)c1cccc(Cl)c1

>  <enum_smi>  (1144) 
CC([NH2+]c1cccnc1)c1cccc(Cl)c1

>  <enum_code>  (1144) 
M

>  <parent_uuid>  (1144) 
85d0fcce-c5b2-415e-8993-f2f147ae328b

>  <o3da_score>  (1144) 
76.183206619663579

>  <o3da_score_rel>  (1144) 
0.30329641465883012

>  <o3da_align>  (1144) 
0.56448855472345838

>  <RMSD>  (1144) 
6.7454342381586063e-05

>  <CONVERGED>  (1144) 
0

>  <ENERGY>  (1144) 
52.014759388075639

$$$$
cb5e3b25-296f-4c09-a274-77060bb58d7c
     RDKit          3D

 16 17  0  0  0  0  0  0  0  0999 V2000
   -3.7027   29.0403    5.3911 C   0  0  0  0  0  0  0  0  0  0  0  0
   -4.3083   28.1008    4.3452 C   0  0  0  0  0  0  0  0  0  0  0  0
   -3.9551   28.5566    2.9522 N   0  0  0  0  0  4  0  0  0  0  0  0
   -2.5424   28.4393    2.5870 C   0  0  0  0  0  0  0  0  0  0  0  0
   -2.0690   27.2793    1.9782 C   0  0  0  0  0  0  0  0  0  0  0  0
   -0.7255   27.2051    1.6089 C   0  0  0  0  0  0  0  0  0  0  0  0
    0.0903   28.2997    1.8496 C   0  0  0  0  0  0  0  0  0  0  0  0
   -0.3511   29.4418    2.4225 N   0  0  0  0  0  0  0  0  0  0  0  0
   -1.6536   29.4944    2.7713 C   0  0  0  0  0  0  0  0  0  0  0  0
   -4.0763   26.6184    4.5623 C   0  0  0  0  0  0  0  0  0  0  0  0
   -2.9245   26.1137    5.1892 C   0  0  0  0  0  0  0  0  0  0  0  0
   -2.7341   24.7361    5.3351 C   0  0  0  0  0  0  0  0  0  0  0  0
   -3.6863   23.8397    4.8546 C   0  0  0  0  0  0  0  0  0  0  0  0
   -4.8301   24.3238    4.2311 C   0  0  0  0  0  0  0  0  0  0  0  0
   -6.0077   23.2295    3.6240 Cl  0  0  0  0  0  0  0  0  0  0  0  0
   -5.0287   25.6986    4.0829 C   0  0  0  0  0  0  0  0  0  0  0  0
  1  2  1  0
  2  3  1  0
  3  4  1  0
  4  5  2  0
  5  6  1  0
  6  7  2  0
  7  8  1  0
  8  9  2  0
  2 10  1  0
 10 11  2  0
 11 12  1  0
 12 13  2  0
 13 14  1  0
 14 15  1  0
 14 16  2  0
  9  4  1  0
 16 10  1  0
M  CHG  1   3   1
M  END
>  <Energy>  (1145) 
52.030562042601716

>  <Energy_Delta>  (1145) 
2.3945992382205077

>  <std_smi>  (1145) 
CC(Nc1cccnc1)c1cccc(Cl)c1

>  <enum_smi>  (1145) 
CC([NH2+]c1cccnc1)c1cccc(Cl)c1

>  <enum_code>  (1145) 
M

>  <parent_uuid>  (1145) 
85d0fcce-c5b2-415e-8993-f2f147ae328b

>  <o3da_score>  (1145) 
65.572404650018171

>  <o3da_score_rel>  (1145) 
0.26105327031187564

>  <o3da_align>  (1145) 
0.29769118826031998

>  <RMSD>  (1145) 
6.3621585725604296e-05

>  <CONVERGED>  (1145) 
0

>  <ENERGY>  (1145) 
52.030562039339308

$$$$
cb5e3b25-296f-4c09-a274-77060bb58d7c
     RDKit          3D

 16 17  0  0  0  0  0  0  0  0999 V2000
   -4.3058   28.8491    6.3271 C   0  0  0  0  0  0  0  0  0  0  0  0
   -4.7838   28.1598    5.0468 C   0  0  0  0  0  0  0  0  0  0  0  0
   -4.4863   29.0084    3.8371 N   0  0  0  0  0  4  0  0  0  0  0  0
   -3.0686   29.1875    3.5196 C   0  0  0  0  0  0  0  0  0  0  0  0
   -2.4247   28.3015    2.6588 C   0  0  0  0  0  0  0  0  0  0  0  0
   -1.0798   28.5095    2.3509 C   0  0  0  0  0  0  0  0  0  0  0  0
   -0.4348   29.6059    2.9019 C   0  0  0  0  0  0  0  0  0  0  0  0
   -1.0454   30.4907    3.7217 N   0  0  0  0  0  0  0  0  0  0  0  0
   -2.3453   30.2712    4.0090 C   0  0  0  0  0  0  0  0  0  0  0  0
   -4.3666   26.7127    4.8740 C   0  0  0  0  0  0  0  0  0  0  0  0
   -5.2234   25.8233    4.1982 C   0  0  0  0  0  0  0  0  0  0  0  0
   -4.8539   24.4922    3.9871 C   0  0  0  0  0  0  0  0  0  0  0  0
   -3.6210   24.0281    4.4400 C   0  0  0  0  0  0  0  0  0  0  0  0
   -2.7631   24.8957    5.1069 C   0  0  0  0  0  0  0  0  0  0  0  0
   -1.2326   24.3361    5.6531 Cl  0  0  0  0  0  0  0  0  0  0  0  0
   -3.1275   26.2266    5.3264 C   0  0  0  0  0  0  0  0  0  0  0  0
  1  2  1  0
  2  3  1  0
  3  4  1  0
  4  5  2  0
  5  6  1  0
  6  7  2  0
  7  8  1  0
  8  9  2  0
  2 10  1  0
 10 11  2  0
 11 12  1  0
 12 13  2  0
 13 14  1  0
 14 15  1  0
 14 16  2  0
  9  4  1  0
 16 10  1  0
M  CHG  1   3   1
M  END
>  <Energy>  (1146) 
52.040378440607675

>  <Energy_Delta>  (1146) 
2.4044156362264673

>  <std_smi>  (1146) 
CC(Nc1cccnc1)c1cccc(Cl)c1

>  <enum_smi>  (1146) 
CC([NH2+]c1cccnc1)c1cccc(Cl)c1

>  <enum_code>  (1146) 
M

>  <parent_uuid>  (1146) 
85d0fcce-c5b2-415e-8993-f2f147ae328b

>  <o3da_score>  (1146) 
71.881873455803103

>  <o3da_score_rel>  (1146) 
0.28617218236751985

>  <o3da_align>  (1146) 
0.30158737387374857

>  <RMSD>  (1146) 
6.2013584476379896e-05

>  <CONVERGED>  (1146) 
0

>  <ENERGY>  (1146) 
52.040378426677215

$$$$
cb5e3b25-296f-4c09-a274-77060bb58d7c
     RDKit          3D

 16 17  0  0  0  0  0  0  0  0999 V2000
   -2.2804   28.9480    5.5788 C   0  0  0  0  0  0  0  0  0  0  0  0
   -3.5736   29.0472    4.7655 C   0  0  0  0  0  0  0  0  0  0  0  0
   -4.5530   27.9833    5.1891 N   0  0  0  0  0  4  0  0  0  0  0  0
   -4.1587   26.6040    4.8977 C   0  0  0  0  0  0  0  0  0  0  0  0
   -3.5281   25.8385    5.8759 C   0  0  0  0  0  0  0  0  0  0  0  0
   -3.1972   24.5127    5.5928 C   0  0  0  0  0  0  0  0  0  0  0  0
   -3.5236   23.9984    4.3475 C   0  0  0  0  0  0  0  0  0  0  0  0
   -4.1523   24.7167    3.3911 N   0  0  0  0  0  0  0  0  0  0  0  0
   -4.4614   25.9981    3.6812 C   0  0  0  0  0  0  0  0  0  0  0  0
   -3.4130   29.1404    3.2613 C   0  0  0  0  0  0  0  0  0  0  0  0
   -4.3734   29.8421    2.5076 C   0  0  0  0  0  0  0  0  0  0  0  0
   -4.2767   29.9190    1.1157 C   0  0  0  0  0  0  0  0  0  0  0  0
   -3.2233   29.2945    0.4519 C   0  0  0  0  0  0  0  0  0  0  0  0
   -2.2676   28.5974    1.1825 C   0  0  0  0  0  0  0  0  0  0  0  0
   -0.9678   27.8187    0.3709 Cl  0  0  0  0  0  0  0  0  0  0  0  0
   -2.3567   28.5168    2.5748 C   0  0  0  0  0  0  0  0  0  0  0  0
  1  2  1  0
  2  3  1  0
  3  4  1  0
  4  5  2  0
  5  6  1  0
  6  7  2  0
  7  8  1  0
  8  9  2  0
  2 10  1  0
 10 11  2  0
 11 12  1  0
 12 13  2  0
 13 14  1  0
 14 15  1  0
 14 16  2  0
  9  4  1  0
 16 10  1  0
M  CHG  1   3   1
M  END
>  <Energy>  (1147) 
52.218829086981323

>  <Energy_Delta>  (1147) 
2.582866282600115

>  <std_smi>  (1147) 
CC(Nc1cccnc1)c1cccc(Cl)c1

>  <enum_smi>  (1147) 
CC([NH2+]c1cccnc1)c1cccc(Cl)c1

>  <enum_code>  (1147) 
M

>  <parent_uuid>  (1147) 
85d0fcce-c5b2-415e-8993-f2f147ae328b

>  <o3da_score>  (1147) 
71.754614471282594

>  <o3da_score_rel>  (1147) 
0.2856655458599377

>  <o3da_align>  (1147) 
0.63970230900790659

>  <RMSD>  (1147) 
7.2650800511084995e-05

>  <CONVERGED>  (1147) 
0

>  <ENERGY>  (1147) 
52.218829005676369

$$$$
7c6b8a0b-5fd6-48c3-b63f-275c7fbd0a6a
     RDKit          3D

 16 17  0  0  0  0  0  0  0  0999 V2000
   -4.3275   28.2462    6.9710 C   0  0  0  0  0  0  0  0  0  0  0  0
   -3.2555   28.3509    5.8831 C   0  0  2  0  0  0  0  0  0  0  0  0
   -3.9261   28.8609    4.6332 N   0  0  0  0  0  4  0  0  0  0  0  0
   -2.9749   29.3128    3.6172 C   0  0  0  0  0  0  0  0  0  0  0  0
   -2.6299   28.4772    2.5584 C   0  0  0  0  0  0  0  0  0  0  0  0
   -1.7263   28.9379    1.6002 C   0  0  0  0  0  0  0  0  0  0  0  0
   -1.2091   30.2174    1.7357 C   0  0  0  0  0  0  0  0  0  0  0  0
   -1.5369   31.0472    2.7520 N   0  0  0  0  0  0  0  0  0  0  0  0
   -2.4132   30.5851    3.6674 C   0  0  0  0  0  0  0  0  0  0  0  0
   -2.5272   27.0419    5.6539 C   0  0  0  0  0  0  0  0  0  0  0  0
   -1.1213   27.0181    5.6530 C   0  0  0  0  0  0  0  0  0  0  0  0
   -0.4260   25.8310    5.4085 C   0  0  0  0  0  0  0  0  0  0  0  0
   -1.1220   24.6505    5.1568 C   0  0  0  0  0  0  0  0  0  0  0  0
   -2.5124   24.6606    5.1534 C   0  0  0  0  0  0  0  0  0  0  0  0
   -3.3815   23.2131    4.8313 Cl  0  0  0  0  0  0  0  0  0  0  0  0
   -3.2159   25.8427    5.3989 C   0  0  0  0  0  0  0  0  0  0  0  0
  2  1  1  1
  2  3  1  0
  3  4  1  0
  4  5  2  0
  5  6  1  0
  6  7  2  0
  7  8  1  0
  8  9  2  0
  2 10  1  0
 10 11  2  0
 11 12  1  0
 12 13  2  0
 13 14  1  0
 14 15  1  0
 14 16  2  0
  9  4  1  0
 16 10  1  0
M  CHG  1   3   1
M  END
>  <Energy>  (1148) 
49.635962808838954

>  <Energy_Delta>  (1148) 
0

>  <std_smi>  (1148) 
CC(Nc1cccnc1)c1cccc(Cl)c1

>  <enum_smi>  (1148) 
C[C@H]([NH2+]c1cccnc1)c1cccc(Cl)c1

>  <enum_code>  (1148) 
M

>  <parent_uuid>  (1148) 
85d0fcce-c5b2-415e-8993-f2f147ae328b

>  <o3da_score>  (1148) 
72.841717616719905

>  <o3da_score_rel>  (1148) 
0.28999346143353044

>  <o3da_align>  (1148) 
0.42629315582586824

>  <RMSD>  (1148) 
6.08102932945649e-05

>  <CONVERGED>  (1148) 
0

>  <ENERGY>  (1148) 
49.635962794724577

$$$$
7c6b8a0b-5fd6-48c3-b63f-275c7fbd0a6a
     RDKit          3D

 16 17  0  0  0  0  0  0  0  0999 V2000
   -6.3187   27.2909    6.5303 C   0  0  0  0  0  0  0  0  0  0  0  0
   -4.9120   27.3753    5.9320 C   0  0  2  0  0  0  0  0  0  0  0  0
   -4.9277   28.4639    4.8895 N   0  0  0  0  0  4  0  0  0  0  0  0
   -3.5873   28.9083    4.5059 C   0  0  0  0  0  0  0  0  0  0  0  0
   -2.9798   28.3995    3.3612 C   0  0  0  0  0  0  0  0  0  0  0  0
   -1.7020   28.8433    3.0197 C   0  0  0  0  0  0  0  0  0  0  0  0
   -1.0866   29.7842    3.8316 C   0  0  0  0  0  0  0  0  0  0  0  0
   -1.6634   30.2983    4.9414 N   0  0  0  0  0  0  0  0  0  0  0  0
   -2.8985   29.8569    5.2559 C   0  0  0  0  0  0  0  0  0  0  0  0
   -4.4288   26.0536    5.3686 C   0  0  0  0  0  0  0  0  0  0  0  0
   -5.2172   25.2745    4.5035 C   0  0  0  0  0  0  0  0  0  0  0  0
   -4.7234   24.0805    3.9700 C   0  0  0  0  0  0  0  0  0  0  0  0
   -3.4356   23.6502    4.2845 C   0  0  0  0  0  0  0  0  0  0  0  0
   -2.6442   24.4133    5.1357 C   0  0  0  0  0  0  0  0  0  0  0  0
   -1.0501   23.8981    5.5178 Cl  0  0  0  0  0  0  0  0  0  0  0  0
   -3.1313   25.6048    5.6766 C   0  0  0  0  0  0  0  0  0  0  0  0
  2  1  1  6
  2  3  1  0
  3  4  1  0
  4  5  2  0
  5  6  1  0
  6  7  2  0
  7  8  1  0
  8  9  2  0
  2 10  1  0
 10 11  2  0
 11 12  1  0
 12 13  2  0
 13 14  1  0
 14 15  1  0
 14 16  2  0
  9  4  1  0
 16 10  1  0
M  CHG  1   3   1
M  END
>  <Energy>  (1149) 
49.778196782494383

>  <Energy_Delta>  (1149) 
0.14223397365542922

>  <std_smi>  (1149) 
CC(Nc1cccnc1)c1cccc(Cl)c1

>  <enum_smi>  (1149) 
C[C@H]([NH2+]c1cccnc1)c1cccc(Cl)c1

>  <enum_code>  (1149) 
M

>  <parent_uuid>  (1149) 
85d0fcce-c5b2-415e-8993-f2f147ae328b

>  <o3da_score>  (1149) 
66.340645558019318

>  <o3da_score_rel>  (1149) 
0.26411174898886602

>  <o3da_align>  (1149) 
0.57658160993570562

>  <RMSD>  (1149) 
5.1241694000281098e-05

>  <CONVERGED>  (1149) 
0

>  <ENERGY>  (1149) 
49.778196772650816

$$$$
7c6b8a0b-5fd6-48c3-b63f-275c7fbd0a6a
     RDKit          3D

 16 17  0  0  0  0  0  0  0  0999 V2000
   -5.7428   28.3711    6.1010 C   0  0  0  0  0  0  0  0  0  0  0  0
   -4.4861   28.2482    5.2352 C   0  0  2  0  0  0  0  0  0  0  0  0
   -4.7232   29.0399    3.9752 N   0  0  0  0  0  4  0  0  0  0  0  0
   -3.4882   29.3549    3.2566 C   0  0  0  0  0  0  0  0  0  0  0  0
   -2.7866   30.5183    3.5640 C   0  0  0  0  0  0  0  0  0  0  0  0
   -1.6215   30.8134    2.8553 C   0  0  0  0  0  0  0  0  0  0  0  0
   -1.2072   29.9366    1.8642 C   0  0  0  0  0  0  0  0  0  0  0  0
   -1.8763   28.8058    1.5473 N   0  0  0  0  0  0  0  0  0  0  0  0
   -3.0014   28.5357    2.2423 C   0  0  0  0  0  0  0  0  0  0  0  0
   -4.1157   26.8081    4.9441 C   0  0  0  0  0  0  0  0  0  0  0  0
   -2.7960   26.3717    5.1554 C   0  0  0  0  0  0  0  0  0  0  0  0
   -2.4202   25.0592    4.8581 C   0  0  0  0  0  0  0  0  0  0  0  0
   -3.3540   24.1622    4.3437 C   0  0  0  0  0  0  0  0  0  0  0  0
   -4.6625   24.5805    4.1302 C   0  0  0  0  0  0  0  0  0  0  0  0
   -5.8211   23.4859    3.4870 Cl  0  0  0  0  0  0  0  0  0  0  0  0
   -5.0469   25.8915    4.4242 C   0  0  0  0  0  0  0  0  0  0  0  0
  2  1  1  1
  2  3  1  0
  3  4  1  0
  4  5  2  0
  5  6  1  0
  6  7  2  0
  7  8  1  0
  8  9  2  0
  2 10  1  0
 10 11  2  0
 11 12  1  0
 12 13  2  0
 13 14  1  0
 14 15  1  0
 14 16  2  0
  9  4  1  0
 16 10  1  0
M  CHG  1   3   1
M  END
>  <Energy>  (1150) 
49.81664604371565

>  <Energy_Delta>  (1150) 
0.18068323487669602

>  <std_smi>  (1150) 
CC(Nc1cccnc1)c1cccc(Cl)c1

>  <enum_smi>  (1150) 
C[C@H]([NH2+]c1cccnc1)c1cccc(Cl)c1

>  <enum_code>  (1150) 
M

>  <parent_uuid>  (1150) 
85d0fcce-c5b2-415e-8993-f2f147ae328b

>  <o3da_score>  (1150) 
84.934537569017635

>  <o3da_score_rel>  (1150) 
0.33813673470052885

>  <o3da_align>  (1150) 
0.49762292152308502

>  <RMSD>  (1150) 
6.1085426966657778e-05

>  <CONVERGED>  (1150) 
0

>  <ENERGY>  (1150) 
49.81664602890514

$$$$
7c6b8a0b-5fd6-48c3-b63f-275c7fbd0a6a
     RDKit          3D

 16 17  0  0  0  0  0  0  0  0999 V2000
   -6.0262   28.4130    5.8767 C   0  0  0  0  0  0  0  0  0  0  0  0
   -4.6961   28.2684    5.1326 C   0  0  2  0  0  0  0  0  0  0  0  0
   -4.8040   29.0567    3.8535 N   0  0  0  0  0  4  0  0  0  0  0  0
   -3.5067   29.3175    3.2288 C   0  0  0  0  0  0  0  0  0  0  0  0
   -2.7693   30.4379    3.6039 C   0  0  0  0  0  0  0  0  0  0  0  0
   -1.5433   30.6798    2.9832 C   0  0  0  0  0  0  0  0  0  0  0  0
   -1.1073   29.7963    2.0073 C   0  0  0  0  0  0  0  0  0  0  0  0
   -1.8116   28.7083    1.6236 N   0  0  0  0  0  0  0  0  0  0  0  0
   -2.9935   28.4876    2.2363 C   0  0  0  0  0  0  0  0  0  0  0  0
   -4.3182   26.8222    4.8838 C   0  0  0  0  0  0  0  0  0  0  0  0
   -5.2105   25.9046    4.3015 C   0  0  0  0  0  0  0  0  0  0  0  0
   -4.8156   24.5872    4.0516 C   0  0  0  0  0  0  0  0  0  0  0  0
   -3.5263   24.1672    4.3739 C   0  0  0  0  0  0  0  0  0  0  0  0
   -2.6339   25.0650    4.9489 C   0  0  0  0  0  0  0  0  0  0  0  0
   -1.0407   24.5579    5.3458 Cl  0  0  0  0  0  0  0  0  0  0  0  0
   -3.0207   26.3823    5.2033 C   0  0  0  0  0  0  0  0  0  0  0  0
  2  1  1  6
  2  3  1  0
  3  4  1  0
  4  5  2  0
  5  6  1  0
  6  7  2  0
  7  8  1  0
  8  9  2  0
  2 10  1  0
 10 11  2  0
 11 12  1  0
 12 13  2  0
 13 14  1  0
 14 15  1  0
 14 16  2  0
  9  4  1  0
 16 10  1  0
M  CHG  1   3   1
M  END
>  <Energy>  (1151) 
49.988446670743429

>  <Energy_Delta>  (1151) 
0.35248386190447434

>  <std_smi>  (1151) 
CC(Nc1cccnc1)c1cccc(Cl)c1

>  <enum_smi>  (1151) 
C[C@H]([NH2+]c1cccnc1)c1cccc(Cl)c1

>  <enum_code>  (1151) 
M

>  <parent_uuid>  (1151) 
85d0fcce-c5b2-415e-8993-f2f147ae328b

>  <o3da_score>  (1151) 
82.557784475539037

>  <o3da_score_rel>  (1151) 
0.32867453530296131

>  <o3da_align>  (1151) 
0.54516726812513328

>  <RMSD>  (1151) 
6.5740437601123663e-05

>  <CONVERGED>  (1151) 
0

>  <ENERGY>  (1151) 
49.988446654788866

$$$$
7c6b8a0b-5fd6-48c3-b63f-275c7fbd0a6a
     RDKit          3D

 16 17  0  0  0  0  0  0  0  0999 V2000
   -4.0888   29.0580    1.6405 C   0  0  0  0  0  0  0  0  0  0  0  0
   -3.2999   29.3534    2.9179 C   0  0  2  0  0  0  0  0  0  0  0  0
   -1.8247   29.2100    2.6667 N   0  0  0  0  0  4  0  0  0  0  0  0
   -1.2485   30.2829    1.8633 C   0  0  0  0  0  0  0  0  0  0  0  0
   -0.9599   30.0709    0.5181 C   0  0  0  0  0  0  0  0  0  0  0  0
   -0.3921   31.1080   -0.2232 C   0  0  0  0  0  0  0  0  0  0  0  0
   -0.1299   32.3126    0.4120 C   0  0  0  0  0  0  0  0  0  0  0  0
   -0.3943   32.5352    1.7192 N   0  0  0  0  0  0  0  0  0  0  0  0
   -0.9398   31.5204    2.4205 C   0  0  0  0  0  0  0  0  0  0  0  0
   -3.6955   28.4521    4.0725 C   0  0  0  0  0  0  0  0  0  0  0  0
   -3.9855   29.0141    5.3282 C   0  0  0  0  0  0  0  0  0  0  0  0
   -4.3174   28.2013    6.4155 C   0  0  0  0  0  0  0  0  0  0  0  0
   -4.3587   26.8162    6.2687 C   0  0  0  0  0  0  0  0  0  0  0  0
   -4.0699   26.2475    5.0333 C   0  0  0  0  0  0  0  0  0  0  0  0
   -4.1081   24.5397    4.8431 Cl  0  0  0  0  0  0  0  0  0  0  0  0
   -3.7380   27.0526    3.9405 C   0  0  0  0  0  0  0  0  0  0  0  0
  2  1  1  6
  2  3  1  0
  3  4  1  0
  4  5  2  0
  5  6  1  0
  6  7  2  0
  7  8  1  0
  8  9  2  0
  2 10  1  0
 10 11  2  0
 11 12  1  0
 12 13  2  0
 13 14  1  0
 14 15  1  0
 14 16  2  0
  9  4  1  0
 16 10  1  0
M  CHG  1   3   1
M  END
>  <Energy>  (1152) 
50.265318345256993

>  <Energy_Delta>  (1152) 
0.62935553641803921

>  <std_smi>  (1152) 
CC(Nc1cccnc1)c1cccc(Cl)c1

>  <enum_smi>  (1152) 
C[C@H]([NH2+]c1cccnc1)c1cccc(Cl)c1

>  <enum_code>  (1152) 
M

>  <parent_uuid>  (1152) 
85d0fcce-c5b2-415e-8993-f2f147ae328b

>  <o3da_score>  (1152) 
64.788878169113957

>  <o3da_score_rel>  (1152) 
0.25793393754822741

>  <o3da_align>  (1152) 
0.63027868965889877

>  <RMSD>  (1152) 
5.6219282950769191e-05

>  <CONVERGED>  (1152) 
0

>  <ENERGY>  (1152) 
50.265318326163126

$$$$
7c6b8a0b-5fd6-48c3-b63f-275c7fbd0a6a
     RDKit          3D

 16 17  0  0  0  0  0  0  0  0999 V2000
   -1.5987   30.3089    5.3213 C   0  0  0  0  0  0  0  0  0  0  0  0
   -2.6247   29.8797    4.2700 C   0  0  2  0  0  0  0  0  0  0  0  0
   -2.9172   31.0161    3.3307 N   0  0  0  0  0  4  0  0  0  0  0  0
   -1.8311   31.3229    2.4062 C   0  0  0  0  0  0  0  0  0  0  0  0
   -1.0106   32.4243    2.6332 C   0  0  0  0  0  0  0  0  0  0  0  0
    0.0094   32.7066    1.7237 C   0  0  0  0  0  0  0  0  0  0  0  0
    0.1635   31.8803    0.6206 C   0  0  0  0  0  0  0  0  0  0  0  0
   -0.6285   30.8118    0.3777 N   0  0  0  0  0  0  0  0  0  0  0  0
   -1.6110   30.5561    1.2657 C   0  0  0  0  0  0  0  0  0  0  0  0
   -3.9293   29.3954    4.8753 C   0  0  0  0  0  0  0  0  0  0  0  0
   -4.5935   30.1057    5.8906 C   0  0  0  0  0  0  0  0  0  0  0  0
   -5.8147   29.6512    6.3971 C   0  0  0  0  0  0  0  0  0  0  0  0
   -6.3951   28.4884    5.8938 C   0  0  0  0  0  0  0  0  0  0  0  0
   -5.7518   27.7803    4.8850 C   0  0  0  0  0  0  0  0  0  0  0  0
   -6.4635   26.3507    4.2505 Cl  0  0  0  0  0  0  0  0  0  0  0  0
   -4.5308   28.2266    4.3741 C   0  0  0  0  0  0  0  0  0  0  0  0
  2  1  1  1
  2  3  1  0
  3  4  1  0
  4  5  2  0
  5  6  1  0
  6  7  2  0
  7  8  1  0
  8  9  2  0
  2 10  1  0
 10 11  2  0
 11 12  1  0
 12 13  2  0
 13 14  1  0
 14 15  1  0
 14 16  2  0
  9  4  1  0
 16 10  1  0
M  CHG  1   3   1
M  END
>  <Energy>  (1153) 
50.472878919314667

>  <Energy_Delta>  (1153) 
0.83691611047571257

>  <std_smi>  (1153) 
CC(Nc1cccnc1)c1cccc(Cl)c1

>  <enum_smi>  (1153) 
C[C@H]([NH2+]c1cccnc1)c1cccc(Cl)c1

>  <enum_code>  (1153) 
M

>  <parent_uuid>  (1153) 
85d0fcce-c5b2-415e-8993-f2f147ae328b

>  <o3da_score>  (1153) 
76.661524118404117

>  <o3da_score_rel>  (1153) 
0.30520066611887747

>  <o3da_align>  (1153) 
0.53591819008271835

>  <RMSD>  (1153) 
5.1812038167982926e-05

>  <CONVERGED>  (1153) 
0

>  <ENERGY>  (1153) 
50.472878914552645

$$$$
7c6b8a0b-5fd6-48c3-b63f-275c7fbd0a6a
     RDKit          3D

 16 17  0  0  0  0  0  0  0  0999 V2000
   -5.5493   28.5651    4.8536 C   0  0  0  0  0  0  0  0  0  0  0  0
   -4.1691   28.0194    4.4815 C   0  0  2  0  0  0  0  0  0  0  0  0
   -3.8265   28.3822    3.0638 N   0  0  0  0  0  4  0  0  0  0  0  0
   -3.4890   29.7886    2.8720 C   0  0  0  0  0  0  0  0  0  0  0  0
   -2.1993   30.2385    3.1438 C   0  0  0  0  0  0  0  0  0  0  0  0
   -1.8931   31.5834    2.9327 C   0  0  0  0  0  0  0  0  0  0  0  0
   -2.8868   32.4229    2.4522 C   0  0  0  0  0  0  0  0  0  0  0  0
   -4.1417   32.0037    2.1740 N   0  0  0  0  0  0  0  0  0  0  0  0
   -4.4188   30.6998    2.3814 C   0  0  0  0  0  0  0  0  0  0  0  0
   -4.0727   26.5138    4.6446 C   0  0  0  0  0  0  0  0  0  0  0  0
   -2.9910   25.9565    5.3488 C   0  0  0  0  0  0  0  0  0  0  0  0
   -2.8623   24.5714    5.4819 C   0  0  0  0  0  0  0  0  0  0  0  0
   -3.8063   23.7213    4.9093 C   0  0  0  0  0  0  0  0  0  0  0  0
   -4.8786   24.2595    4.2065 C   0  0  0  0  0  0  0  0  0  0  0  0
   -6.0436   23.2201    3.4878 Cl  0  0  0  0  0  0  0  0  0  0  0  0
   -5.0158   25.6433    4.0695 C   0  0  0  0  0  0  0  0  0  0  0  0
  2  1  1  6
  2  3  1  0
  3  4  1  0
  4  5  2  0
  5  6  1  0
  6  7  2  0
  7  8  1  0
  8  9  2  0
  2 10  1  0
 10 11  2  0
 11 12  1  0
 12 13  2  0
 13 14  1  0
 14 15  1  0
 14 16  2  0
  9  4  1  0
 16 10  1  0
M  CHG  1   3   1
M  END
>  <Energy>  (1154) 
50.474750859905086

>  <Energy_Delta>  (1154) 
0.83878805106613186

>  <std_smi>  (1154) 
CC(Nc1cccnc1)c1cccc(Cl)c1

>  <enum_smi>  (1154) 
C[C@H]([NH2+]c1cccnc1)c1cccc(Cl)c1

>  <enum_code>  (1154) 
M

>  <parent_uuid>  (1154) 
85d0fcce-c5b2-415e-8993-f2f147ae328b

>  <o3da_score>  (1154) 
72.86084470307847

>  <o3da_score_rel>  (1154) 
0.29006960914341068

>  <o3da_align>  (1154) 
0.49653139460640433

>  <RMSD>  (1154) 
7.3730343274221318e-05

>  <CONVERGED>  (1154) 
0

>  <ENERGY>  (1154) 
50.474750845822669

$$$$
7c6b8a0b-5fd6-48c3-b63f-275c7fbd0a6a
     RDKit          3D

 16 17  0  0  0  0  0  0  0  0999 V2000
   -5.3638   26.6502    4.5693 C   0  0  0  0  0  0  0  0  0  0  0  0
   -3.9110   27.0593    4.3173 C   0  0  2  0  0  0  0  0  0  0  0  0
   -2.9771   26.1905    5.1119 N   0  0  0  0  0  4  0  0  0  0  0  0
   -2.8502   24.8286    4.6047 C   0  0  0  0  0  0  0  0  0  0  0  0
   -1.9798   24.5557    3.5523 C   0  0  0  0  0  0  0  0  0  0  0  0
   -1.8587   23.2422    3.0976 C   0  0  0  0  0  0  0  0  0  0  0  0
   -2.6075   22.2533    3.7176 C   0  0  0  0  0  0  0  0  0  0  0  0
   -3.4508   22.4964    4.7462 N   0  0  0  0  0  0  0  0  0  0  0  0
   -3.5531   23.7716    5.1741 C   0  0  0  0  0  0  0  0  0  0  0  0
   -3.6349   28.5129    4.6555 C   0  0  0  0  0  0  0  0  0  0  0  0
   -4.0726   29.0997    5.8556 C   0  0  0  0  0  0  0  0  0  0  0  0
   -3.7643   30.4306    6.1524 C   0  0  0  0  0  0  0  0  0  0  0  0
   -3.0089   31.1923    5.2627 C   0  0  0  0  0  0  0  0  0  0  0  0
   -2.5640   30.6217    4.0756 C   0  0  0  0  0  0  0  0  0  0  0  0
   -1.6228   31.5482    2.9762 Cl  0  0  0  0  0  0  0  0  0  0  0  0
   -2.8687   29.2932    3.7705 C   0  0  0  0  0  0  0  0  0  0  0  0
  2  1  1  1
  2  3  1  0
  3  4  1  0
  4  5  2  0
  5  6  1  0
  6  7  2  0
  7  8  1  0
  8  9  2  0
  2 10  1  0
 10 11  2  0
 11 12  1  0
 12 13  2  0
 13 14  1  0
 14 15  1  0
 14 16  2  0
  9  4  1  0
 16 10  1  0
M  CHG  1   3   1
M  END
>  <Energy>  (1155) 
50.509379537723021

>  <Energy_Delta>  (1155) 
0.87341672888406663

>  <std_smi>  (1155) 
CC(Nc1cccnc1)c1cccc(Cl)c1

>  <enum_smi>  (1155) 
C[C@H]([NH2+]c1cccnc1)c1cccc(Cl)c1

>  <enum_code>  (1155) 
M

>  <parent_uuid>  (1155) 
85d0fcce-c5b2-415e-8993-f2f147ae328b

>  <o3da_score>  (1155) 
68.417864027778933

>  <o3da_score_rel>  (1155) 
0.27238145752826187

>  <o3da_align>  (1155) 
0.48733285789435754

>  <RMSD>  (1155) 
0.0002290764616954226

>  <CONVERGED>  (1155) 
0

>  <ENERGY>  (1155) 
50.509379817172267

$$$$
7c6b8a0b-5fd6-48c3-b63f-275c7fbd0a6a
     RDKit          3D

 16 17  0  0  0  0  0  0  0  0999 V2000
   -5.9623   28.4993    5.0894 C   0  0  0  0  0  0  0  0  0  0  0  0
   -4.5140   28.0646    5.3277 C   0  0  2  0  0  0  0  0  0  0  0  0
   -3.5538   29.0978    4.7954 N   0  0  0  0  0  4  0  0  0  0  0  0
   -3.5219   29.2414    3.3390 C   0  0  0  0  0  0  0  0  0  0  0  0
   -2.6281   28.4902    2.5792 C   0  0  0  0  0  0  0  0  0  0  0  0
   -2.5935   28.6698    1.1959 C   0  0  0  0  0  0  0  0  0  0  0  0
   -3.4444   29.6046    0.6267 C   0  0  0  0  0  0  0  0  0  0  0  0
   -4.3068   30.3573    1.3458 N   0  0  0  0  0  0  0  0  0  0  0  0
   -4.3244   30.1696    2.6820 C   0  0  0  0  0  0  0  0  0  0  0  0
   -4.1609   26.6519    4.9062 C   0  0  0  0  0  0  0  0  0  0  0  0
   -4.7853   26.0025    3.8277 C   0  0  0  0  0  0  0  0  0  0  0  0
   -4.4017   24.7120    3.4499 C   0  0  0  0  0  0  0  0  0  0  0  0
   -3.3870   24.0500    4.1378 C   0  0  0  0  0  0  0  0  0  0  0  0
   -2.7592   24.6799    5.2057 C   0  0  0  0  0  0  0  0  0  0  0  0
   -1.4987   23.8796    6.0563 Cl  0  0  0  0  0  0  0  0  0  0  0  0
   -3.1376   25.9684    5.5907 C   0  0  0  0  0  0  0  0  0  0  0  0
  2  1  1  6
  2  3  1  0
  3  4  1  0
  4  5  2  0
  5  6  1  0
  6  7  2  0
  7  8  1  0
  8  9  2  0
  2 10  1  0
 10 11  2  0
 11 12  1  0
 12 13  2  0
 13 14  1  0
 14 15  1  0
 14 16  2  0
  9  4  1  0
 16 10  1  0
M  CHG  1   3   1
M  END
>  <Energy>  (1156) 
52.030562069578359

>  <Energy_Delta>  (1156) 
2.3945992607394047

>  <std_smi>  (1156) 
CC(Nc1cccnc1)c1cccc(Cl)c1

>  <enum_smi>  (1156) 
C[C@H]([NH2+]c1cccnc1)c1cccc(Cl)c1

>  <enum_code>  (1156) 
M

>  <parent_uuid>  (1156) 
85d0fcce-c5b2-415e-8993-f2f147ae328b

>  <o3da_score>  (1156) 
75.947823693403492

>  <o3da_score_rel>  (1156) 
0.30235932102921959

>  <o3da_align>  (1156) 
0.54547579292978787

>  <RMSD>  (1156) 
7.8464709881666646e-05

>  <CONVERGED>  (1156) 
0

>  <ENERGY>  (1156) 
52.030562038632098

$$$$
7c6b8a0b-5fd6-48c3-b63f-275c7fbd0a6a
     RDKit          3D

 16 17  0  0  0  0  0  0  0  0999 V2000
   -5.9748   28.5302    4.9494 C   0  0  0  0  0  0  0  0  0  0  0  0
   -4.5718   28.0631    5.3457 C   0  0  2  0  0  0  0  0  0  0  0  0
   -3.5311   29.0511    4.8862 N   0  0  0  0  0  4  0  0  0  0  0  0
   -3.3713   29.1780    3.4366 C   0  0  0  0  0  0  0  0  0  0  0  0
   -4.0439   30.1846    2.7474 C   0  0  0  0  0  0  0  0  0  0  0  0
   -3.8465   30.3151    1.3721 C   0  0  0  0  0  0  0  0  0  0  0  0
   -2.9719   29.4439    0.7413 C   0  0  0  0  0  0  0  0  0  0  0  0
   -2.2945   28.4733    1.3932 N   0  0  0  0  0  0  0  0  0  0  0  0
   -2.5006   28.3595    2.7222 C   0  0  0  0  0  0  0  0  0  0  0  0
   -4.2214   26.6293    5.0015 C   0  0  0  0  0  0  0  0  0  0  0  0
   -3.3142   25.9264    5.8173 C   0  0  0  0  0  0  0  0  0  0  0  0
   -2.9409   24.6152    5.5107 C   0  0  0  0  0  0  0  0  0  0  0  0
   -3.4628   23.9844    4.3837 C   0  0  0  0  0  0  0  0  0  0  0  0
   -4.3592   24.6659    3.5681 C   0  0  0  0  0  0  0  0  0  0  0  0
   -5.0034   23.8973    2.1722 Cl  0  0  0  0  0  0  0  0  0  0  0  0
   -4.7382   25.9770    3.8686 C   0  0  0  0  0  0  0  0  0  0  0  0
  2  1  1  6
  2  3  1  0
  3  4  1  0
  4  5  2  0
  5  6  1  0
  6  7  2  0
  7  8  1  0
  8  9  2  0
  2 10  1  0
 10 11  2  0
 11 12  1  0
 12 13  2  0
 13 14  1  0
 14 15  1  0
 14 16  2  0
  9  4  1  0
 16 10  1  0
M  CHG  1   3   1
M  END
>  <Energy>  (1157) 
52.218829014383914

>  <Energy_Delta>  (1157) 
2.5828662055449598

>  <std_smi>  (1157) 
CC(Nc1cccnc1)c1cccc(Cl)c1

>  <enum_smi>  (1157) 
C[C@H]([NH2+]c1cccnc1)c1cccc(Cl)c1

>  <enum_code>  (1157) 
M

>  <parent_uuid>  (1157) 
85d0fcce-c5b2-415e-8993-f2f147ae328b

>  <o3da_score>  (1157) 
70.194419860138254

>  <o3da_score_rel>  (1157) 
0.27945418442312508

>  <o3da_align>  (1157) 
0.51503068643916039

>  <RMSD>  (1157) 
6.7652926025668251e-05

>  <CONVERGED>  (1157) 
0

>  <ENERGY>  (1157) 
52.218829004995968

$$$$
27fe0828-8c0e-4926-abf8-ae6c419e4343
     RDKit          3D

 16 17  0  0  0  0  0  0  0  0999 V2000
   -6.2419   28.3218    5.3046 C   0  0  0  0  0  0  0  0  0  0  0  0
   -4.7629   28.1230    4.9698 C   0  0  2  0  0  0  0  0  0  0  0  0
   -4.4571   28.9460    3.7297 N   0  0  0  0  0  4  0  0  0  0  0  0
   -3.0237   29.0193    3.4042 C   0  0  0  0  0  0  0  0  0  0  0  0
   -2.2492   30.0213    3.9837 C   0  0  0  0  0  0  0  0  0  0  0  0
   -0.8844   30.0934    3.6900 C   0  0  0  0  0  0  0  0  0  0  0  0
   -0.3129   29.1667    2.8216 C   0  0  0  0  0  0  0  0  0  0  0  0
   -1.0843   28.2130    2.2699 N   0  0  0  0  0  4  0  0  0  0  0  0
   -2.4057   28.1136    2.5241 C   0  0  0  0  0  0  0  0  0  0  0  0
   -4.3739   26.6710    4.7783 C   0  0  0  0  0  0  0  0  0  0  0  0
   -5.1147   25.7968    3.9644 C   0  0  0  0  0  0  0  0  0  0  0  0
   -4.6881   24.4811    3.7604 C   0  0  0  0  0  0  0  0  0  0  0  0
   -3.5127   24.0220    4.3529 C   0  0  0  0  0  0  0  0  0  0  0  0
   -2.7728   24.8760    5.1618 C   0  0  0  0  0  0  0  0  0  0  0  0
   -1.2990   24.3416    5.8614 Cl  0  0  0  0  0  0  0  0  0  0  0  0
   -3.1988   26.1873    5.3830 C   0  0  0  0  0  0  0  0  0  0  0  0
  2  1  1  6
  2  3  1  0
  3  4  1  0
  4  5  2  0
  5  6  1  0
  6  7  2  0
  7  8  1  0
  8  9  2  0
  2 10  1  0
 10 11  2  0
 11 12  1  0
 12 13  2  0
 13 14  1  0
 14 15  1  0
 14 16  2  0
  9  4  1  0
 16 10  1  0
M  CHG  2   3   1   8   1
M  END
>  <Energy>  (1158) 
130.31933159122673

>  <Energy_Delta>  (1158) 
0

>  <std_smi>  (1158) 
CC(Nc1cccnc1)c1cccc(Cl)c1

>  <enum_smi>  (1158) 
C[C@H]([NH2+]c1ccc[nH+]c1)c1cccc(Cl)c1

>  <enum_code>  (1158) 
M

>  <parent_uuid>  (1158) 
85d0fcce-c5b2-415e-8993-f2f147ae328b

>  <o3da_score>  (1158) 
73.991093084804845

>  <o3da_score_rel>  (1158) 
0.29456929217149519

>  <o3da_align>  (1158) 
0.43154639044531029

>  <RMSD>  (1158) 
7.3447628530323575e-05

>  <CONVERGED>  (1158) 
0

>  <ENERGY>  (1158) 
130.31933153494413

$$$$
27fe0828-8c0e-4926-abf8-ae6c419e4343
     RDKit          3D

 16 17  0  0  0  0  0  0  0  0999 V2000
   -4.2751   28.4629    7.1990 C   0  0  0  0  0  0  0  0  0  0  0  0
   -3.2189   28.5475    6.0968 C   0  0  2  0  0  0  0  0  0  0  0  0
   -3.8838   29.1365    4.8647 N   0  0  0  0  0  4  0  0  0  0  0  0
   -2.9503   29.4176    3.7625 C   0  0  0  0  0  0  0  0  0  0  0  0
   -2.2913   30.6443    3.7306 C   0  0  0  0  0  0  0  0  0  0  0  0
   -1.4069   30.9240    2.6847 C   0  0  0  0  0  0  0  0  0  0  0  0
   -1.1956   29.9778    1.6848 C   0  0  0  0  0  0  0  0  0  0  0  0
   -1.8487   28.8034    1.7361 N   0  0  0  0  0  4  0  0  0  0  0  0
   -2.7118   28.4975    2.7269 C   0  0  0  0  0  0  0  0  0  0  0  0
   -2.5678   27.2113    5.8054 C   0  0  0  0  0  0  0  0  0  0  0  0
   -1.1697   27.0845    5.8812 C   0  0  0  0  0  0  0  0  0  0  0  0
   -0.5456   25.8721    5.5761 C   0  0  0  0  0  0  0  0  0  0  0  0
   -1.3051   24.7710    5.1850 C   0  0  0  0  0  0  0  0  0  0  0  0
   -2.6890   24.8814    5.1138 C   0  0  0  0  0  0  0  0  0  0  0  0
   -3.6351   23.5423    4.6048 Cl  0  0  0  0  0  0  0  0  0  0  0  0
   -3.3228   26.0870    5.4262 C   0  0  0  0  0  0  0  0  0  0  0  0
  2  1  1  1
  2  3  1  0
  3  4  1  0
  4  5  2  0
  5  6  1  0
  6  7  2  0
  7  8  1  0
  8  9  2  0
  2 10  1  0
 10 11  2  0
 11 12  1  0
 12 13  2  0
 13 14  1  0
 14 15  1  0
 14 16  2  0
  9  4  1  0
 16 10  1  0
M  CHG  2   3   1   8   1
M  END
>  <Energy>  (1159) 
130.83374601753431

>  <Energy_Delta>  (1159) 
0.51441442630758161

>  <std_smi>  (1159) 
CC(Nc1cccnc1)c1cccc(Cl)c1

>  <enum_smi>  (1159) 
C[C@H]([NH2+]c1ccc[nH+]c1)c1cccc(Cl)c1

>  <enum_code>  (1159) 
M

>  <parent_uuid>  (1159) 
85d0fcce-c5b2-415e-8993-f2f147ae328b

>  <o3da_score>  (1159) 
74.031095943029868

>  <o3da_score_rel>  (1159) 
0.29472854936233944

>  <o3da_align>  (1159) 
0.45792943064558667

>  <RMSD>  (1159) 
6.0202461632105369e-05

>  <CONVERGED>  (1159) 
0

>  <ENERGY>  (1159) 
130.83374579161887

$$$$
27fe0828-8c0e-4926-abf8-ae6c419e4343
     RDKit          3D

 16 17  0  0  0  0  0  0  0  0999 V2000
   -6.0271   28.5142    5.0506 C   0  0  0  0  0  0  0  0  0  0  0  0
   -4.6034   28.0665    5.3886 C   0  0  2  0  0  0  0  0  0  0  0  0
   -3.5991   29.0637    4.8318 N   0  0  0  0  0  4  0  0  0  0  0  0
   -3.4216   29.0561    3.3698 C   0  0  0  0  0  0  0  0  0  0  0  0
   -4.1419   29.9612    2.5936 C   0  0  0  0  0  0  0  0  0  0  0  0
   -3.9756   29.9668    1.2054 C   0  0  0  0  0  0  0  0  0  0  0  0
   -3.0862   29.0755    0.6113 C   0  0  0  0  0  0  0  0  0  0  0  0
   -2.3894   28.2232    1.3834 N   0  0  0  0  0  4  0  0  0  0  0  0
   -2.5180   28.1917    2.7261 C   0  0  0  0  0  0  0  0  0  0  0  0
   -4.2457   26.6380    5.0297 C   0  0  0  0  0  0  0  0  0  0  0  0
   -3.2714   25.9606    5.7867 C   0  0  0  0  0  0  0  0  0  0  0  0
   -2.8720   24.6654    5.4456 C   0  0  0  0  0  0  0  0  0  0  0  0
   -3.4280   24.0287    4.3380 C   0  0  0  0  0  0  0  0  0  0  0  0
   -4.3945   24.6838    3.5843 C   0  0  0  0  0  0  0  0  0  0  0  0
   -5.0523   23.9341    2.1865 Cl  0  0  0  0  0  0  0  0  0  0  0  0
   -4.8108   25.9732    3.9273 C   0  0  0  0  0  0  0  0  0  0  0  0
  2  1  1  6
  2  3  1  0
  3  4  1  0
  4  5  2  0
  5  6  1  0
  6  7  2  0
  7  8  1  0
  8  9  2  0
  2 10  1  0
 10 11  2  0
 11 12  1  0
 12 13  2  0
 13 14  1  0
 14 15  1  0
 14 16  2  0
  9  4  1  0
 16 10  1  0
M  CHG  2   3   1   8   1
M  END
>  <Energy>  (1160) 
132.191964263502

>  <Energy_Delta>  (1160) 
1.8726326722752731

>  <std_smi>  (1160) 
CC(Nc1cccnc1)c1cccc(Cl)c1

>  <enum_smi>  (1160) 
C[C@H]([NH2+]c1ccc[nH+]c1)c1cccc(Cl)c1

>  <enum_code>  (1160) 
M

>  <parent_uuid>  (1160) 
85d0fcce-c5b2-415e-8993-f2f147ae328b

>  <o3da_score>  (1160) 
68.328150439061517

>  <o3da_score_rel>  (1160) 
0.27202429469656314

>  <o3da_align>  (1160) 
0.55788641431737451

>  <RMSD>  (1160) 
8.0512086752307585e-05

>  <CONVERGED>  (1160) 
0

>  <ENERGY>  (1160) 
132.19196418484313

$$$$
27fe0828-8c0e-4926-abf8-ae6c419e4343
     RDKit          3D

 16 17  0  0  0  0  0  0  0  0999 V2000
   -6.2813   28.3143    5.3835 C   0  0  0  0  0  0  0  0  0  0  0  0
   -4.8065   28.1773    5.0017 C   0  0  2  0  0  0  0  0  0  0  0  0
   -4.5637   29.0551    3.7867 N   0  0  0  0  0  4  0  0  0  0  0  0
   -3.1547   29.1375    3.3672 C   0  0  0  0  0  0  0  0  0  0  0  0
   -2.7210   28.3565    2.2972 C   0  0  0  0  0  0  0  0  0  0  0  0
   -1.3866   28.4221    1.8881 C   0  0  0  0  0  0  0  0  0  0  0  0
   -0.5047   29.2737    2.5459 C   0  0  0  0  0  0  0  0  0  0  0  0
   -0.9494   30.0270    3.5679 N   0  0  0  0  0  4  0  0  0  0  0  0
   -2.2303   29.9892    3.9932 C   0  0  0  0  0  0  0  0  0  0  0  0
   -4.3773   26.7449    4.7653 C   0  0  0  0  0  0  0  0  0  0  0  0
   -5.0950   25.8766    3.9246 C   0  0  0  0  0  0  0  0  0  0  0  0
   -4.6364   24.5778    3.6838 C   0  0  0  0  0  0  0  0  0  0  0  0
   -3.4533   24.1289    4.2682 C   0  0  0  0  0  0  0  0  0  0  0  0
   -2.7369   24.9765    5.1041 C   0  0  0  0  0  0  0  0  0  0  0  0
   -1.2616   24.4525    5.8101 Cl  0  0  0  0  0  0  0  0  0  0  0  0
   -3.1937   26.2713    5.3601 C   0  0  0  0  0  0  0  0  0  0  0  0
  2  1  1  6
  2  3  1  0
  3  4  1  0
  4  5  2  0
  5  6  1  0
  6  7  2  0
  7  8  1  0
  8  9  2  0
  2 10  1  0
 10 11  2  0
 11 12  1  0
 12 13  2  0
 13 14  1  0
 14 15  1  0
 14 16  2  0
  9  4  1  0
 16 10  1  0
M  CHG  2   3   1   8   1
M  END
>  <Energy>  (1161) 
132.87297218396009

>  <Energy_Delta>  (1161) 
2.553640592733359

>  <std_smi>  (1161) 
CC(Nc1cccnc1)c1cccc(Cl)c1

>  <enum_smi>  (1161) 
C[C@H]([NH2+]c1ccc[nH+]c1)c1cccc(Cl)c1

>  <enum_code>  (1161) 
M

>  <parent_uuid>  (1161) 
85d0fcce-c5b2-415e-8993-f2f147ae328b

>  <o3da_score>  (1161) 
77.115271864664649

>  <o3da_score_rel>  (1161) 
0.30700710182441815

>  <o3da_align>  (1161) 
0.53408258205026682

>  <RMSD>  (1161) 
5.3918455228401762e-05

>  <CONVERGED>  (1161) 
0

>  <ENERGY>  (1161) 
132.87297200934651

$$$$
27fe0828-8c0e-4926-abf8-ae6c419e4343
     RDKit          3D

 16 17  0  0  0  0  0  0  0  0999 V2000
   -6.0446   28.5223    5.0171 C   0  0  0  0  0  0  0  0  0  0  0  0
   -4.6224   28.0622    5.3460 C   0  0  2  0  0  0  0  0  0  0  0  0
   -3.6236   29.0972    4.8503 N   0  0  0  0  0  4  0  0  0  0  0  0
   -3.4221   29.1528    3.3927 C   0  0  0  0  0  0  0  0  0  0  0  0
   -4.1354   30.0866    2.6443 C   0  0  0  0  0  0  0  0  0  0  0  0
   -3.9335   30.1657    1.2631 C   0  0  0  0  0  0  0  0  0  0  0  0
   -3.0149   29.3189    0.6488 C   0  0  0  0  0  0  0  0  0  0  0  0
   -2.3275   28.4362    1.3945 N   0  0  0  0  0  4  0  0  0  0  0  0
   -2.4929   28.3319    2.7295 C   0  0  0  0  0  0  0  0  0  0  0  0
   -4.2476   26.6556    4.9214 C   0  0  0  0  0  0  0  0  0  0  0  0
   -4.9236   25.9582    3.9056 C   0  0  0  0  0  0  0  0  0  0  0  0
   -4.5115   24.6784    3.5202 C   0  0  0  0  0  0  0  0  0  0  0  0
   -3.4162   24.0761    4.1359 C   0  0  0  0  0  0  0  0  0  0  0  0
   -2.7426   24.7494    5.1473 C   0  0  0  0  0  0  0  0  0  0  0  0
   -1.3757   24.0327    5.8983 Cl  0  0  0  0  0  0  0  0  0  0  0  0
   -3.1528   26.0246    5.5444 C   0  0  0  0  0  0  0  0  0  0  0  0
  2  1  1  6
  2  3  1  0
  3  4  1  0
  4  5  2  0
  5  6  1  0
  6  7  2  0
  7  8  1  0
  8  9  2  0
  2 10  1  0
 10 11  2  0
 11 12  1  0
 12 13  2  0
 13 14  1  0
 14 15  1  0
 14 16  2  0
  9  4  1  0
 16 10  1  0
M  CHG  2   3   1   8   1
M  END
>  <Energy>  (1162) 
132.98566263665643

>  <Energy_Delta>  (1162) 
2.6663310454297005

>  <std_smi>  (1162) 
CC(Nc1cccnc1)c1cccc(Cl)c1

>  <enum_smi>  (1162) 
C[C@H]([NH2+]c1ccc[nH+]c1)c1cccc(Cl)c1

>  <enum_code>  (1162) 
M

>  <parent_uuid>  (1162) 
85d0fcce-c5b2-415e-8993-f2f147ae328b

>  <o3da_score>  (1162) 
78.631778692173469

>  <o3da_score_rel>  (1162) 
0.31304453584692288

>  <o3da_align>  (1162) 
0.4796947311649789

>  <RMSD>  (1162) 
6.7375926191957667e-05

>  <CONVERGED>  (1162) 
0

>  <ENERGY>  (1162) 
132.98566253089015

$$$$
27fe0828-8c0e-4926-abf8-ae6c419e4343
     RDKit          3D

 16 17  0  0  0  0  0  0  0  0999 V2000
   -5.9143   28.4368    5.1726 C   0  0  0  0  0  0  0  0  0  0  0  0
   -4.6071   28.0424    4.4841 C   0  0  2  0  0  0  0  0  0  0  0  0
   -4.6967   28.4910    3.0365 N   0  0  0  0  0  4  0  0  0  0  0  0
   -3.4792   28.2493    2.2451 C   0  0  0  0  0  0  0  0  0  0  0  0
   -3.4498   27.1713    1.3618 C   0  0  0  0  0  0  0  0  0  0  0  0
   -2.3065   26.9361    0.5935 C   0  0  0  0  0  0  0  0  0  0  0  0
   -1.2114   27.7862    0.7091 C   0  0  0  0  0  0  0  0  0  0  0  0
   -1.2677   28.8269    1.5596 N   0  0  0  0  0  4  0  0  0  0  0  0
   -2.3530   29.0843    2.3203 C   0  0  0  0  0  0  0  0  0  0  0  0
   -4.3024   26.5667    4.6244 C   0  0  0  0  0  0  0  0  0  0  0  0
   -3.1107   26.1525    5.2447 C   0  0  0  0  0  0  0  0  0  0  0  0
   -2.7979   24.7947    5.3547 C   0  0  0  0  0  0  0  0  0  0  0  0
   -3.6663   23.8310    4.8456 C   0  0  0  0  0  0  0  0  0  0  0  0
   -4.8529   24.2271    4.2399 C   0  0  0  0  0  0  0  0  0  0  0  0
   -5.9258   23.0517    3.5948 Cl  0  0  0  0  0  0  0  0  0  0  0  0
   -5.1782   25.5818    4.1334 C   0  0  0  0  0  0  0  0  0  0  0  0
  2  1  1  6
  2  3  1  0
  3  4  1  0
  4  5  2  0
  5  6  1  0
  6  7  2  0
  7  8  1  0
  8  9  2  0
  2 10  1  0
 10 11  2  0
 11 12  1  0
 12 13  2  0
 13 14  1  0
 14 15  1  0
 14 16  2  0
  9  4  1  0
 16 10  1  0
M  CHG  2   3   1   8   1
M  END
>  <Energy>  (1163) 
133.60834298688144

>  <Energy_Delta>  (1163) 
3.2890113956547111

>  <std_smi>  (1163) 
CC(Nc1cccnc1)c1cccc(Cl)c1

>  <enum_smi>  (1163) 
C[C@H]([NH2+]c1ccc[nH+]c1)c1cccc(Cl)c1

>  <enum_code>  (1163) 
M

>  <parent_uuid>  (1163) 
85d0fcce-c5b2-415e-8993-f2f147ae328b

>  <o3da_score>  (1163) 
69.2086852014654

>  <o3da_score_rel>  (1163) 
0.27552983152376503

>  <o3da_align>  (1163) 
0.36994248564783494

>  <RMSD>  (1163) 
7.2625758764328078e-05

>  <CONVERGED>  (1163) 
0

>  <ENERGY>  (1163) 
133.60834284593966

$$$$
27fe0828-8c0e-4926-abf8-ae6c419e4343
     RDKit          3D

 16 17  0  0  0  0  0  0  0  0999 V2000
   -2.3899   29.1197    5.6283 C   0  0  0  0  0  0  0  0  0  0  0  0
   -3.6676   29.0744    4.7875 C   0  0  2  0  0  0  0  0  0  0  0  0
   -4.5931   27.9919    5.3213 N   0  0  0  0  0  4  0  0  0  0  0  0
   -4.2207   26.6006    5.0125 C   0  0  0  0  0  0  0  0  0  0  0  0
   -4.7476   25.9964    3.8713 C   0  0  0  0  0  0  0  0  0  0  0  0
   -4.4168   24.6727    3.5698 C   0  0  0  0  0  0  0  0  0  0  0  0
   -3.5766   23.9620    4.4204 C   0  0  0  0  0  0  0  0  0  0  0  0
   -3.0974   24.5579    5.5270 N   0  0  0  0  0  4  0  0  0  0  0  0
   -3.3931   25.8352    5.8495 C   0  0  0  0  0  0  0  0  0  0  0  0
   -3.4771   28.9943    3.2873 C   0  0  0  0  0  0  0  0  0  0  0  0
   -4.4498   29.5540    2.4377 C   0  0  0  0  0  0  0  0  0  0  0  0
   -4.3355   29.4475    1.0486 C   0  0  0  0  0  0  0  0  0  0  0  0
   -3.2555   28.7732    0.4831 C   0  0  0  0  0  0  0  0  0  0  0  0
   -2.2857   28.2192    1.3094 C   0  0  0  0  0  0  0  0  0  0  0  0
   -0.9641   27.3552    0.6323 Cl  0  0  0  0  0  0  0  0  0  0  0  0
   -2.3855   28.3323    2.6991 C   0  0  0  0  0  0  0  0  0  0  0  0
  2  1  1  1
  2  3  1  0
  3  4  1  0
  4  5  2  0
  5  6  1  0
  6  7  2  0
  7  8  1  0
  8  9  2  0
  2 10  1  0
 10 11  2  0
 11 12  1  0
 12 13  2  0
 13 14  1  0
 14 15  1  0
 14 16  2  0
  9  4  1  0
 16 10  1  0
M  CHG  2   3   1   8   1
M  END
>  <Energy>  (1164) 
134.65855215440149

>  <Energy_Delta>  (1164) 
4.3392205631747629

>  <std_smi>  (1164) 
CC(Nc1cccnc1)c1cccc(Cl)c1

>  <enum_smi>  (1164) 
C[C@H]([NH2+]c1ccc[nH+]c1)c1cccc(Cl)c1

>  <enum_code>  (1164) 
M

>  <parent_uuid>  (1164) 
85d0fcce-c5b2-415e-8993-f2f147ae328b

>  <o3da_score>  (1164) 
72.268416216361587

>  <o3da_score_rel>  (1164) 
0.28771106526037321

>  <o3da_align>  (1164) 
0.58925968713346388

>  <RMSD>  (1164) 
0.00027097716357993339

>  <CONVERGED>  (1164) 
0

>  <ENERGY>  (1164) 
134.65855249759619

$$$$
27fe0828-8c0e-4926-abf8-ae6c419e4343
     RDKit          3D

 16 17  0  0  0  0  0  0  0  0999 V2000
   -2.8093   27.6812    5.6705 C   0  0  0  0  0  0  0  0  0  0  0  0
   -3.5367   28.7836    4.8989 C   0  0  2  0  0  0  0  0  0  0  0  0
   -4.8631   28.2652    4.3827 N   0  0  0  0  0  4  0  0  0  0  0  0
   -5.8850   28.0299    5.4072 C   0  0  0  0  0  0  0  0  0  0  0  0
   -6.6128   29.1116    5.8986 C   0  0  0  0  0  0  0  0  0  0  0  0
   -7.6109   28.8959    6.8530 C   0  0  0  0  0  0  0  0  0  0  0  0
   -7.8748   27.6031    7.2973 C   0  0  0  0  0  0  0  0  0  0  0  0
   -7.1646   26.5744    6.8002 N   0  0  0  0  0  4  0  0  0  0  0  0
   -6.1927   26.7428    5.8786 C   0  0  0  0  0  0  0  0  0  0  0  0
   -2.7327   29.3220    3.7335 C   0  0  0  0  0  0  0  0  0  0  0  0
   -2.6035   30.7108    3.5572 C   0  0  0  0  0  0  0  0  0  0  0  0
   -1.8998   31.2303    2.4668 C   0  0  0  0  0  0  0  0  0  0  0  0
   -1.3206   30.3743    1.5321 C   0  0  0  0  0  0  0  0  0  0  0  0
   -1.4430   28.9996    1.6932 C   0  0  0  0  0  0  0  0  0  0  0  0
   -0.7452   27.9306    0.5436 Cl  0  0  0  0  0  0  0  0  0  0  0  0
   -2.1428   28.4710    2.7818 C   0  0  0  0  0  0  0  0  0  0  0  0
  2  1  1  6
  2  3  1  0
  3  4  1  0
  4  5  2  0
  5  6  1  0
  6  7  2  0
  7  8  1  0
  8  9  2  0
  2 10  1  0
 10 11  2  0
 11 12  1  0
 12 13  2  0
 13 14  1  0
 14 15  1  0
 14 16  2  0
  9  4  1  0
 16 10  1  0
M  CHG  2   3   1   8   1
M  END
>  <Energy>  (1165) 
134.80506073317457

>  <Energy_Delta>  (1165) 
4.4857291419478429

>  <std_smi>  (1165) 
CC(Nc1cccnc1)c1cccc(Cl)c1

>  <enum_smi>  (1165) 
C[C@H]([NH2+]c1ccc[nH+]c1)c1cccc(Cl)c1

>  <enum_code>  (1165) 
M

>  <parent_uuid>  (1165) 
85d0fcce-c5b2-415e-8993-f2f147ae328b

>  <o3da_score>  (1165) 
64.833816535104603

>  <o3da_score_rel>  (1165) 
0.25811284371259557

>  <o3da_align>  (1165) 
0.45122645385814902

>  <RMSD>  (1165) 
7.4845208543332335e-05

>  <CONVERGED>  (1165) 
0

>  <ENERGY>  (1165) 
134.80506052130457

$$$$
27fe0828-8c0e-4926-abf8-ae6c419e4343
     RDKit          3D

 16 17  0  0  0  0  0  0  0  0999 V2000
   -5.8057   28.4867    4.9668 C   0  0  0  0  0  0  0  0  0  0  0  0
   -4.3690   28.0429    4.6863 C   0  0  2  0  0  0  0  0  0  0  0  0
   -3.9138   28.5965    3.3517 N   0  0  0  0  0  4  0  0  0  0  0  0
   -3.6397   30.0366    3.3348 C   0  0  0  0  0  0  0  0  0  0  0  0
   -2.4188   30.4976    3.8234 C   0  0  0  0  0  0  0  0  0  0  0  0
   -2.1315   31.8649    3.7858 C   0  0  0  0  0  0  0  0  0  0  0  0
   -3.0628   32.7522    3.2534 C   0  0  0  0  0  0  0  0  0  0  0  0
   -4.2303   32.2811    2.7793 N   0  0  0  0  0  4  0  0  0  0  0  0
   -4.5440   30.9682    2.7991 C   0  0  0  0  0  0  0  0  0  0  0  0
   -4.1829   26.5394    4.6780 C   0  0  0  0  0  0  0  0  0  0  0  0
   -5.0986   25.6679    4.0638 C   0  0  0  0  0  0  0  0  0  0  0  0
   -4.8636   24.2895    4.0384 C   0  0  0  0  0  0  0  0  0  0  0  0
   -3.7101   23.7605    4.6148 C   0  0  0  0  0  0  0  0  0  0  0  0
   -2.7938   24.6115    5.2200 C   0  0  0  0  0  0  0  0  0  0  0  0
   -1.3609   23.9773    5.9233 Cl  0  0  0  0  0  0  0  0  0  0  0  0
   -3.0218   25.9896    5.2525 C   0  0  0  0  0  0  0  0  0  0  0  0
  2  1  1  6
  2  3  1  0
  3  4  1  0
  4  5  2  0
  5  6  1  0
  6  7  2  0
  7  8  1  0
  8  9  2  0
  2 10  1  0
 10 11  2  0
 11 12  1  0
 12 13  2  0
 13 14  1  0
 14 15  1  0
 14 16  2  0
  9  4  1  0
 16 10  1  0
M  CHG  2   3   1   8   1
M  END
>  <Energy>  (1166) 
134.96365866604478

>  <Energy_Delta>  (1166) 
4.644327074818051

>  <std_smi>  (1166) 
CC(Nc1cccnc1)c1cccc(Cl)c1

>  <enum_smi>  (1166) 
C[C@H]([NH2+]c1ccc[nH+]c1)c1cccc(Cl)c1

>  <enum_code>  (1166) 
M

>  <parent_uuid>  (1166) 
85d0fcce-c5b2-415e-8993-f2f147ae328b

>  <o3da_score>  (1166) 
70.257307957935168

>  <o3da_score_rel>  (1166) 
0.27970455107783604

>  <o3da_align>  (1166) 
0.32884688685922719

>  <RMSD>  (1166) 
9.6847845471886921e-05

>  <CONVERGED>  (1166) 
0

>  <ENERGY>  (1166) 
134.96365860841138

$$$$
27fe0828-8c0e-4926-abf8-ae6c419e4343
     RDKit          3D

 16 17  0  0  0  0  0  0  0  0999 V2000
   -5.6223   28.5809    4.9658 C   0  0  0  0  0  0  0  0  0  0  0  0
   -4.2394   28.0570    4.5762 C   0  0  2  0  0  0  0  0  0  0  0  0
   -3.8865   28.5092    3.1759 N   0  0  0  0  0  4  0  0  0  0  0  0
   -3.5157   29.9218    3.0470 C   0  0  0  0  0  0  0  0  0  0  0  0
   -4.4658   30.8339    2.5938 C   0  0  0  0  0  0  0  0  0  0  0  0
   -4.1135   32.1774    2.4364 C   0  0  0  0  0  0  0  0  0  0  0  0
   -2.8153   32.5901    2.7239 C   0  0  0  0  0  0  0  0  0  0  0  0
   -1.9131   31.6879    3.1502 N   0  0  0  0  0  4  0  0  0  0  0  0
   -2.2159   30.3829    3.3162 C   0  0  0  0  0  0  0  0  0  0  0  0
   -4.1228   26.5484    4.6457 C   0  0  0  0  0  0  0  0  0  0  0  0
   -5.0942   25.6949    4.0948 C   0  0  0  0  0  0  0  0  0  0  0  0
   -4.9297   24.3069    4.1366 C   0  0  0  0  0  0  0  0  0  0  0  0
   -3.7926   23.7496    4.7189 C   0  0  0  0  0  0  0  0  0  0  0  0
   -2.8231   24.5823    5.2635 C   0  0  0  0  0  0  0  0  0  0  0  0
   -1.4089   23.9135    5.9727 Cl  0  0  0  0  0  0  0  0  0  0  0  0
   -2.9806   25.9703    5.2291 C   0  0  0  0  0  0  0  0  0  0  0  0
  2  1  1  6
  2  3  1  0
  3  4  1  0
  4  5  2  0
  5  6  1  0
  6  7  2  0
  7  8  1  0
  8  9  2  0
  2 10  1  0
 10 11  2  0
 11 12  1  0
 12 13  2  0
 13 14  1  0
 14 15  1  0
 14 16  2  0
  9  4  1  0
 16 10  1  0
M  CHG  2   3   1   8   1
M  END
>  <Energy>  (1167) 
134.98601615627618

>  <Energy_Delta>  (1167) 
4.6666845650494508

>  <std_smi>  (1167) 
CC(Nc1cccnc1)c1cccc(Cl)c1

>  <enum_smi>  (1167) 
C[C@H]([NH2+]c1ccc[nH+]c1)c1cccc(Cl)c1

>  <enum_code>  (1167) 
M

>  <parent_uuid>  (1167) 
85d0fcce-c5b2-415e-8993-f2f147ae328b

>  <o3da_score>  (1167) 
75.051025615086544

>  <o3da_score_rel>  (1167) 
0.29878903757837499

>  <o3da_align>  (1167) 
0.46389037068900263

>  <RMSD>  (1167) 
6.6253773411552322e-05

>  <CONVERGED>  (1167) 
0

>  <ENERGY>  (1167) 
134.98601611420011

$$$$
27fe0828-8c0e-4926-abf8-ae6c419e4343
     RDKit          3D

 16 17  0  0  0  0  0  0  0  0999 V2000
   -1.6805   30.3270    5.3413 C   0  0  0  0  0  0  0  0  0  0  0  0
   -2.6591   29.8361    4.2740 C   0  0  2  0  0  0  0  0  0  0  0  0
   -2.9520   30.9408    3.2817 N   0  0  0  0  0  4  0  0  0  0  0  0
   -1.8607   31.2644    2.3574 C   0  0  0  0  0  0  0  0  0  0  0  0
   -1.0540   32.3689    2.6224 C   0  0  0  0  0  0  0  0  0  0  0  0
   -0.0322   32.7081    1.7311 C   0  0  0  0  0  0  0  0  0  0  0  0
    0.1639   31.9466    0.5824 C   0  0  0  0  0  0  0  0  0  0  0  0
   -0.6351   30.8910    0.3436 N   0  0  0  0  0  4  0  0  0  0  0  0
   -1.6307   30.5310    1.1814 C   0  0  0  0  0  0  0  0  0  0  0  0
   -3.9636   29.3391    4.8619 C   0  0  0  0  0  0  0  0  0  0  0  0
   -4.4403   28.0587    4.5317 C   0  0  0  0  0  0  0  0  0  0  0  0
   -5.6591   27.5982    5.0384 C   0  0  0  0  0  0  0  0  0  0  0  0
   -6.4226   28.4081    5.8769 C   0  0  0  0  0  0  0  0  0  0  0  0
   -5.9621   29.6756    6.2123 C   0  0  0  0  0  0  0  0  0  0  0  0
   -6.8958   30.6893    7.2375 Cl  0  0  0  0  0  0  0  0  0  0  0  0
   -4.7434   30.1435    5.7126 C   0  0  0  0  0  0  0  0  0  0  0  0
  2  1  1  1
  2  3  1  0
  3  4  1  0
  4  5  2  0
  5  6  1  0
  6  7  2  0
  7  8  1  0
  8  9  2  0
  2 10  1  0
 10 11  2  0
 11 12  1  0
 12 13  2  0
 13 14  1  0
 14 15  1  0
 14 16  2  0
  9  4  1  0
 16 10  1  0
M  CHG  2   3   1   8   1
M  END
>  <Energy>  (1168) 
135.22103196514524

>  <Energy_Delta>  (1168) 
4.9017003739185157

>  <std_smi>  (1168) 
CC(Nc1cccnc1)c1cccc(Cl)c1

>  <enum_smi>  (1168) 
C[C@H]([NH2+]c1ccc[nH+]c1)c1cccc(Cl)c1

>  <enum_code>  (1168) 
M

>  <parent_uuid>  (1168) 
85d0fcce-c5b2-415e-8993-f2f147ae328b

>  <o3da_score>  (1168) 
71.611654281843855

>  <o3da_score_rel>  (1168) 
0.28509640057425573

>  <o3da_align>  (1168) 
0.55476355080138862

>  <RMSD>  (1168) 
9.0641087270773766e-05

>  <CONVERGED>  (1168) 
0

>  <ENERGY>  (1168) 
135.22103180860307

$$$$
27fe0828-8c0e-4926-abf8-ae6c419e4343
     RDKit          3D

 16 17  0  0  0  0  0  0  0  0999 V2000
   -6.0426   28.5122    5.0480 C   0  0  0  0  0  0  0  0  0  0  0  0
   -4.6097   28.0594    5.3379 C   0  0  2  0  0  0  0  0  0  0  0  0
   -3.6338   29.0995    4.8079 N   0  0  0  0  0  4  0  0  0  0  0  0
   -3.4635   29.1513    3.3462 C   0  0  0  0  0  0  0  0  0  0  0  0
   -2.4530   28.3954    2.7528 C   0  0  0  0  0  0  0  0  0  0  0  0
   -2.2567   28.4598    1.3707 C   0  0  0  0  0  0  0  0  0  0  0  0
   -3.0615   29.2911    0.5989 C   0  0  0  0  0  0  0  0  0  0  0  0
   -4.0175   30.0259    1.1948 N   0  0  0  0  0  4  0  0  0  0  0  0
   -4.2379   29.9875    2.5261 C   0  0  0  0  0  0  0  0  0  0  0  0
   -4.2474   26.6485    4.9216 C   0  0  0  0  0  0  0  0  0  0  0  0
   -4.9445   25.9388    3.9292 C   0  0  0  0  0  0  0  0  0  0  0  0
   -4.5441   24.6516    3.5553 C   0  0  0  0  0  0  0  0  0  0  0  0
   -3.4410   24.0530    4.1604 C   0  0  0  0  0  0  0  0  0  0  0  0
   -2.7463   24.7383    5.1487 C   0  0  0  0  0  0  0  0  0  0  0  0
   -1.3763   24.0215    5.8951 Cl  0  0  0  0  0  0  0  0  0  0  0  0
   -3.1438   26.0214    5.5333 C   0  0  0  0  0  0  0  0  0  0  0  0
  2  1  1  6
  2  3  1  0
  3  4  1  0
  4  5  2  0
  5  6  1  0
  6  7  2  0
  7  8  1  0
  8  9  2  0
  2 10  1  0
 10 11  2  0
 11 12  1  0
 12 13  2  0
 13 14  1  0
 14 15  1  0
 14 16  2  0
  9  4  1  0
 16 10  1  0
M  CHG  2   3   1   8   1
M  END
>  <Energy>  (1169) 
135.68737085665515

>  <Energy_Delta>  (1169) 
5.3680392654284219

>  <std_smi>  (1169) 
CC(Nc1cccnc1)c1cccc(Cl)c1

>  <enum_smi>  (1169) 
C[C@H]([NH2+]c1ccc[nH+]c1)c1cccc(Cl)c1

>  <enum_code>  (1169) 
M

>  <parent_uuid>  (1169) 
85d0fcce-c5b2-415e-8993-f2f147ae328b

>  <o3da_score>  (1169) 
78.940808352757074

>  <o3da_score_rel>  (1169) 
0.31427482782644228

>  <o3da_align>  (1169) 
0.46004919772731268

>  <RMSD>  (1169) 
0.00011126001674149686

>  <CONVERGED>  (1169) 
0

>  <ENERGY>  (1169) 
135.68737020555318

$$$$
04638956-1108-4436-bf38-b50b0fc081d3
     RDKit          3D

 16 17  0  0  0  0  0  0  0  0999 V2000
   -5.3270   28.4230    6.1697 C   0  0  0  0  0  0  0  0  0  0  0  0
   -4.3358   28.1160    5.0457 C   0  0  2  0  0  0  0  0  0  0  0  0
   -4.8369   28.6982    3.7927 N   0  0  0  0  0  0  0  0  0  0  0  0
   -4.1446   28.6860    2.5898 C   0  0  0  0  0  0  0  0  0  0  0  0
   -4.8183   29.0791    1.4268 C   0  0  0  0  0  0  0  0  0  0  0  0
   -4.1653   29.1337    0.1967 C   0  0  0  0  0  0  0  0  0  0  0  0
   -2.8203   28.8116    0.1419 C   0  0  0  0  0  0  0  0  0  0  0  0
   -2.1743   28.4685    1.2650 N   0  0  0  0  0  4  0  0  0  0  0  0
   -2.7818   28.4124    2.4620 C   0  0  0  0  0  0  0  0  0  0  0  0
   -4.1072   26.6178    4.9316 C   0  0  0  0  0  0  0  0  0  0  0  0
   -2.9874   26.0373    5.5529 C   0  0  0  0  0  0  0  0  0  0  0  0
   -2.7546   24.6624    5.4681 C   0  0  0  0  0  0  0  0  0  0  0  0
   -3.6388   23.8462    4.7647 C   0  0  0  0  0  0  0  0  0  0  0  0
   -4.7592   24.4066    4.1582 C   0  0  0  0  0  0  0  0  0  0  0  0
   -5.8511   23.4058    3.2848 Cl  0  0  0  0  0  0  0  0  0  0  0  0
   -5.0010   25.7782    4.2451 C   0  0  0  0  0  0  0  0  0  0  0  0
  2  1  1  1
  2  3  1  0
  3  4  1  0
  4  5  2  0
  5  6  1  0
  6  7  2  0
  7  8  1  0
  8  9  2  0
  2 10  1  0
 10 11  2  0
 11 12  1  0
 12 13  2  0
 13 14  1  0
 14 15  1  0
 14 16  2  0
  9  4  1  0
 16 10  1  0
M  CHG  1   8   1
M  END
>  <Energy>  (1170) 
71.209612280781002

>  <Energy_Delta>  (1170) 
0

>  <std_smi>  (1170) 
CC(Nc1cccnc1)c1cccc(Cl)c1

>  <enum_smi>  (1170) 
C[C@H](Nc1ccc[nH+]c1)c1cccc(Cl)c1

>  <enum_code>  (1170) 
M

>  <parent_uuid>  (1170) 
85d0fcce-c5b2-415e-8993-f2f147ae328b

>  <o3da_score>  (1170) 
63.089728115737238

>  <o3da_score_rel>  (1170) 
0.25116937430623465

>  <o3da_align>  (1170) 
0.36102488962187362

>  <RMSD>  (1170) 
7.7695197466396649e-05

>  <CONVERGED>  (1170) 
0

>  <ENERGY>  (1170) 
71.209612240395927

$$$$
04638956-1108-4436-bf38-b50b0fc081d3
     RDKit          3D

 16 17  0  0  0  0  0  0  0  0999 V2000
   -2.4711   27.9006    5.8978 C   0  0  0  0  0  0  0  0  0  0  0  0
   -3.4396   28.7856    5.1105 C   0  0  2  0  0  0  0  0  0  0  0  0
   -4.6638   28.0235    4.8248 N   0  0  0  0  0  0  0  0  0  0  0  0
   -5.7957   28.5666    4.2295 C   0  0  0  0  0  0  0  0  0  0  0  0
   -6.7957   27.6964    3.7777 C   0  0  0  0  0  0  0  0  0  0  0  0
   -7.9785   28.1808    3.2215 C   0  0  0  0  0  0  0  0  0  0  0  0
   -8.1651   29.5500    3.1413 C   0  0  0  0  0  0  0  0  0  0  0  0
   -7.2185   30.3764    3.6075 N   0  0  0  0  0  4  0  0  0  0  0  0
   -6.0726   29.9324    4.1506 C   0  0  0  0  0  0  0  0  0  0  0  0
   -2.7928   29.2978    3.8348 C   0  0  0  0  0  0  0  0  0  0  0  0
   -2.5419   28.4548    2.7385 C   0  0  0  0  0  0  0  0  0  0  0  0
   -1.9499   28.9517    1.5745 C   0  0  0  0  0  0  0  0  0  0  0  0
   -1.5978   30.2975    1.4884 C   0  0  0  0  0  0  0  0  0  0  0  0
   -1.8302   31.1394    2.5715 C   0  0  0  0  0  0  0  0  0  0  0  0
   -1.4103   32.8038    2.4704 Cl  0  0  0  0  0  0  0  0  0  0  0  0
   -2.4151   30.6481    3.7399 C   0  0  0  0  0  0  0  0  0  0  0  0
  2  1  1  6
  2  3  1  0
  3  4  1  0
  4  5  2  0
  5  6  1  0
  6  7  2  0
  7  8  1  0
  8  9  2  0
  2 10  1  0
 10 11  2  0
 11 12  1  0
 12 13  2  0
 13 14  1  0
 14 15  1  0
 14 16  2  0
  9  4  1  0
 16 10  1  0
M  CHG  1   8   1
M  END
>  <Energy>  (1171) 
71.248450486674898

>  <Energy_Delta>  (1171) 
0.038838205893895861

>  <std_smi>  (1171) 
CC(Nc1cccnc1)c1cccc(Cl)c1

>  <enum_smi>  (1171) 
C[C@H](Nc1ccc[nH+]c1)c1cccc(Cl)c1

>  <enum_code>  (1171) 
M

>  <parent_uuid>  (1171) 
85d0fcce-c5b2-415e-8993-f2f147ae328b

>  <o3da_score>  (1171) 
70.019010437740306

>  <o3da_score_rel>  (1171) 
0.27875585402629272

>  <o3da_align>  (1171) 
0.3609035912877519

>  <RMSD>  (1171) 
7.62425189742833e-05

>  <CONVERGED>  (1171) 
0

>  <ENERGY>  (1171) 
71.248450472752765

$$$$
04638956-1108-4436-bf38-b50b0fc081d3
     RDKit          3D

 16 17  0  0  0  0  0  0  0  0999 V2000
   -2.4489   28.0145    5.9049 C   0  0  0  0  0  0  0  0  0  0  0  0
   -3.4527   28.8391    5.0938 C   0  0  2  0  0  0  0  0  0  0  0  0
   -4.6301   28.0010    4.8040 N   0  0  0  0  0  0  0  0  0  0  0  0
   -5.8063   28.5102    4.2611 C   0  0  0  0  0  0  0  0  0  0  0  0
   -6.1551   29.8634    4.2949 C   0  0  0  0  0  0  0  0  0  0  0  0
   -7.3803   30.3067    3.7945 C   0  0  0  0  0  0  0  0  0  0  0  0
   -8.2713   29.3786    3.2841 C   0  0  0  0  0  0  0  0  0  0  0  0
   -7.9472   28.0787    3.2900 N   0  0  0  0  0  4  0  0  0  0  0  0
   -6.7742   27.6302    3.7645 C   0  0  0  0  0  0  0  0  0  0  0  0
   -2.8147   29.3539    3.8138 C   0  0  0  0  0  0  0  0  0  0  0  0
   -2.5058   30.7191    3.6874 C   0  0  0  0  0  0  0  0  0  0  0  0
   -1.9204   31.2161    2.5201 C   0  0  0  0  0  0  0  0  0  0  0  0
   -1.6331   30.3564    1.4614 C   0  0  0  0  0  0  0  0  0  0  0  0
   -1.9248   29.0008    1.5781 C   0  0  0  0  0  0  0  0  0  0  0  0
   -1.5799   27.9335    0.2741 Cl  0  0  0  0  0  0  0  0  0  0  0  0
   -2.5034   28.4970    2.7440 C   0  0  0  0  0  0  0  0  0  0  0  0
  2  1  1  6
  2  3  1  0
  3  4  1  0
  4  5  2  0
  5  6  1  0
  6  7  2  0
  7  8  1  0
  8  9  2  0
  2 10  1  0
 10 11  2  0
 11 12  1  0
 12 13  2  0
 13 14  1  0
 14 15  1  0
 14 16  2  0
  9  4  1  0
 16 10  1  0
M  CHG  1   8   1
M  END
>  <Energy>  (1172) 
72.959958098180223

>  <Energy_Delta>  (1172) 
1.7503458173992215

>  <std_smi>  (1172) 
CC(Nc1cccnc1)c1cccc(Cl)c1

>  <enum_smi>  (1172) 
C[C@H](Nc1ccc[nH+]c1)c1cccc(Cl)c1

>  <enum_code>  (1172) 
M

>  <parent_uuid>  (1172) 
85d0fcce-c5b2-415e-8993-f2f147ae328b

>  <o3da_score>  (1172) 
67.764098165147601

>  <o3da_score_rel>  (1172) 
0.26977872063964109

>  <o3da_align>  (1172) 
0.33496293733834226

>  <RMSD>  (1172) 
7.9137013019008124e-05

>  <CONVERGED>  (1172) 
0

>  <ENERGY>  (1172) 
72.959957985006625

$$$$
04638956-1108-4436-bf38-b50b0fc081d3
     RDKit          3D

 16 17  0  0  0  0  0  0  0  0999 V2000
   -6.0719   28.2847    5.2358 C   0  0  0  0  0  0  0  0  0  0  0  0
   -4.7173   27.9807    4.5867 C   0  0  2  0  0  0  0  0  0  0  0  0
   -4.7517   28.4424    3.1868 N   0  0  0  0  0  0  0  0  0  0  0  0
   -3.5937   28.6168    2.4304 C   0  0  0  0  0  0  0  0  0  0  0  0
   -2.3383   28.8861    2.9833 C   0  0  0  0  0  0  0  0  0  0  0  0
   -1.2264   29.1211    2.1729 C   0  0  0  0  0  0  0  0  0  0  0  0
   -1.3860   29.1172    0.7982 C   0  0  0  0  0  0  0  0  0  0  0  0
   -2.6002   28.9015    0.2748 N   0  0  0  0  0  4  0  0  0  0  0  0
   -3.6827   28.6712    1.0349 C   0  0  0  0  0  0  0  0  0  0  0  0
   -4.3800   26.4989    4.6329 C   0  0  0  0  0  0  0  0  0  0  0  0
   -5.2503   25.5193    4.1226 C   0  0  0  0  0  0  0  0  0  0  0  0
   -4.9058   24.1653    4.1594 C   0  0  0  0  0  0  0  0  0  0  0  0
   -3.6837   23.7689    4.6992 C   0  0  0  0  0  0  0  0  0  0  0  0
   -2.8125   24.7284    5.2054 C   0  0  0  0  0  0  0  0  0  0  0  0
   -1.2960   24.2490    5.8601 Cl  0  0  0  0  0  0  0  0  0  0  0  0
   -3.1541   26.0814    5.1784 C   0  0  0  0  0  0  0  0  0  0  0  0
  2  1  1  6
  2  3  1  0
  3  4  1  0
  4  5  2  0
  5  6  1  0
  6  7  2  0
  7  8  1  0
  8  9  2  0
  2 10  1  0
 10 11  2  0
 11 12  1  0
 12 13  2  0
 13 14  1  0
 14 15  1  0
 14 16  2  0
  9  4  1  0
 16 10  1  0
M  CHG  1   8   1
M  END
>  <Energy>  (1173) 
73.227843585539276

>  <Energy_Delta>  (1173) 
2.0182313047582738

>  <std_smi>  (1173) 
CC(Nc1cccnc1)c1cccc(Cl)c1

>  <enum_smi>  (1173) 
C[C@H](Nc1ccc[nH+]c1)c1cccc(Cl)c1

>  <enum_code>  (1173) 
M

>  <parent_uuid>  (1173) 
85d0fcce-c5b2-415e-8993-f2f147ae328b

>  <o3da_score>  (1173) 
71.400123454127993

>  <o3da_score_rel>  (1173) 
0.28425426561456141

>  <o3da_align>  (1173) 
0.34137967663974889

>  <RMSD>  (1173) 
6.9247361886645497e-05

>  <CONVERGED>  (1173) 
0

>  <ENERGY>  (1173) 
73.227843558670585

$$$$
04638956-1108-4436-bf38-b50b0fc081d3
     RDKit          3D

 16 17  0  0  0  0  0  0  0  0999 V2000
   -6.0449   28.5770    4.4305 C   0  0  0  0  0  0  0  0  0  0  0  0
   -4.7908   28.0687    5.1487 C   0  0  2  0  0  0  0  0  0  0  0  0
   -3.6985   29.0454    4.9829 N   0  0  0  0  0  0  0  0  0  0  0  0
   -3.0260   29.3696    3.8157 C   0  0  0  0  0  0  0  0  0  0  0  0
   -2.1475   30.4617    3.8411 C   0  0  0  0  0  0  0  0  0  0  0  0
   -1.3700   30.7966    2.7334 C   0  0  0  0  0  0  0  0  0  0  0  0
   -1.4583   30.0111    1.5981 C   0  0  0  0  0  0  0  0  0  0  0  0
   -2.2806   28.9534    1.5877 N   0  0  0  0  0  4  0  0  0  0  0  0
   -3.0427   28.6161    2.6416 C   0  0  0  0  0  0  0  0  0  0  0  0
   -4.3411   26.6485    4.8324 C   0  0  0  0  0  0  0  0  0  0  0  0
   -5.1315   25.7437    4.1032 C   0  0  0  0  0  0  0  0  0  0  0  0
   -4.6850   24.4430    3.8464 C   0  0  0  0  0  0  0  0  0  0  0  0
   -3.4448   24.0199    4.3199 C   0  0  0  0  0  0  0  0  0  0  0  0
   -2.6588   24.8951    5.0611 C   0  0  0  0  0  0  0  0  0  0  0  0
   -1.1238   24.3852    5.6434 Cl  0  0  0  0  0  0  0  0  0  0  0  0
   -3.1028   26.1909    5.3259 C   0  0  0  0  0  0  0  0  0  0  0  0
  2  1  1  6
  2  3  1  0
  3  4  1  0
  4  5  2  0
  5  6  1  0
  6  7  2  0
  7  8  1  0
  8  9  2  0
  2 10  1  0
 10 11  2  0
 11 12  1  0
 12 13  2  0
 13 14  1  0
 14 15  1  0
 14 16  2  0
  9  4  1  0
 16 10  1  0
M  CHG  1   8   1
M  END
>  <Energy>  (1174) 
73.482642388371218

>  <Energy_Delta>  (1174) 
2.2730301075902162

>  <std_smi>  (1174) 
CC(Nc1cccnc1)c1cccc(Cl)c1

>  <enum_smi>  (1174) 
C[C@H](Nc1ccc[nH+]c1)c1cccc(Cl)c1

>  <enum_code>  (1174) 
M

>  <parent_uuid>  (1174) 
85d0fcce-c5b2-415e-8993-f2f147ae328b

>  <o3da_score>  (1174) 
100.15332228299596

>  <o3da_score_rel>  (1174) 
0.39872492787357461

>  <o3da_align>  (1174) 
0.3950278510611327

>  <RMSD>  (1174) 
6.675975658434139e-05

>  <CONVERGED>  (1174) 
0

>  <ENERGY>  (1174) 
73.482642321909353

$$$$
04638956-1108-4436-bf38-b50b0fc081d3
     RDKit          3D

 16 17  0  0  0  0  0  0  0  0999 V2000
   -5.5531   28.5034    4.2847 C   0  0  0  0  0  0  0  0  0  0  0  0
   -4.1539   27.9074    4.4601 C   0  0  2  0  0  0  0  0  0  0  0  0
   -3.3281   28.2278    3.2919 N   0  0  0  0  0  0  0  0  0  0  0  0
   -2.7572   29.4576    3.0195 C   0  0  0  0  0  0  0  0  0  0  0  0
   -2.1906   29.6658    1.7557 C   0  0  0  0  0  0  0  0  0  0  0  0
   -1.5397   30.8572    1.4402 C   0  0  0  0  0  0  0  0  0  0  0  0
   -1.4385   31.8372    2.4118 C   0  0  0  0  0  0  0  0  0  0  0  0
   -1.9586   31.6208    3.6282 N   0  0  0  0  0  4  0  0  0  0  0  0
   -2.5917   30.4808    3.9538 C   0  0  0  0  0  0  0  0  0  0  0  0
   -4.1130   26.3977    4.6428 C   0  0  0  0  0  0  0  0  0  0  0  0
   -5.1712   25.5449    4.2902 C   0  0  0  0  0  0  0  0  0  0  0  0
   -5.0669   24.1611    4.4678 C   0  0  0  0  0  0  0  0  0  0  0  0
   -3.9015   23.6053    4.9922 C   0  0  0  0  0  0  0  0  0  0  0  0
   -2.8402   24.4356    5.3348 C   0  0  0  0  0  0  0  0  0  0  0  0
   -1.3924   23.7609    5.9723 Cl  0  0  0  0  0  0  0  0  0  0  0  0
   -2.9395   25.8166    5.1616 C   0  0  0  0  0  0  0  0  0  0  0  0
  2  1  1  6
  2  3  1  0
  3  4  1  0
  4  5  2  0
  5  6  1  0
  6  7  2  0
  7  8  1  0
  8  9  2  0
  2 10  1  0
 10 11  2  0
 11 12  1  0
 12 13  2  0
 13 14  1  0
 14 15  1  0
 14 16  2  0
  9  4  1  0
 16 10  1  0
M  CHG  1   8   1
M  END
>  <Energy>  (1175) 
73.608578059484813

>  <Energy_Delta>  (1175) 
2.3989657787038112

>  <std_smi>  (1175) 
CC(Nc1cccnc1)c1cccc(Cl)c1

>  <enum_smi>  (1175) 
C[C@H](Nc1ccc[nH+]c1)c1cccc(Cl)c1

>  <enum_code>  (1175) 
M

>  <parent_uuid>  (1175) 
85d0fcce-c5b2-415e-8993-f2f147ae328b

>  <o3da_score>  (1175) 
81.763729994310154

>  <o3da_score_rel>  (1175) 
0.32551328904034554

>  <o3da_align>  (1175) 
0.52468713087771635

>  <RMSD>  (1175) 
7.1247673583829234e-05

>  <CONVERGED>  (1175) 
0

>  <ENERGY>  (1175) 
73.608578048183588

$$$$
04638956-1108-4436-bf38-b50b0fc081d3
     RDKit          3D

 16 17  0  0  0  0  0  0  0  0999 V2000
   -5.6291   28.5259    4.3110 C   0  0  0  0  0  0  0  0  0  0  0  0
   -4.2167   27.9516    4.4499 C   0  0  2  0  0  0  0  0  0  0  0  0
   -3.4317   28.2638    3.2480 N   0  0  0  0  0  0  0  0  0  0  0  0
   -2.8510   29.4881    2.9693 C   0  0  0  0  0  0  0  0  0  0  0  0
   -2.7664   30.5373    3.8882 C   0  0  0  0  0  0  0  0  0  0  0  0
   -2.0954   31.7206    3.5743 C   0  0  0  0  0  0  0  0  0  0  0  0
   -1.4835   31.8374    2.3380 C   0  0  0  0  0  0  0  0  0  0  0  0
   -1.5420   30.8160    1.4730 N   0  0  0  0  0  4  0  0  0  0  0  0
   -2.1848   29.6711    1.7523 C   0  0  0  0  0  0  0  0  0  0  0  0
   -4.1515   26.4417    4.6404 C   0  0  0  0  0  0  0  0  0  0  0  0
   -5.2122   25.5734    4.3368 C   0  0  0  0  0  0  0  0  0  0  0  0
   -5.0813   24.1920    4.5158 C   0  0  0  0  0  0  0  0  0  0  0  0
   -3.8868   23.6547    4.9921 C   0  0  0  0  0  0  0  0  0  0  0  0
   -2.8238   24.5010    5.2876 C   0  0  0  0  0  0  0  0  0  0  0  0
   -1.3401   23.8480    5.8619 Cl  0  0  0  0  0  0  0  0  0  0  0  0
   -2.9499   25.8796    5.1145 C   0  0  0  0  0  0  0  0  0  0  0  0
  2  1  1  6
  2  3  1  0
  3  4  1  0
  4  5  2  0
  5  6  1  0
  6  7  2  0
  7  8  1  0
  8  9  2  0
  2 10  1  0
 10 11  2  0
 11 12  1  0
 12 13  2  0
 13 14  1  0
 14 15  1  0
 14 16  2  0
  9  4  1  0
 16 10  1  0
M  CHG  1   8   1
M  END
>  <Energy>  (1176) 
73.734436961996536

>  <Energy_Delta>  (1176) 
2.5248246812155344

>  <std_smi>  (1176) 
CC(Nc1cccnc1)c1cccc(Cl)c1

>  <enum_smi>  (1176) 
C[C@H](Nc1ccc[nH+]c1)c1cccc(Cl)c1

>  <enum_code>  (1176) 
M

>  <parent_uuid>  (1176) 
85d0fcce-c5b2-415e-8993-f2f147ae328b

>  <o3da_score>  (1176) 
82.229319776343146

>  <o3da_score_rel>  (1176) 
0.32736686961089539

>  <o3da_align>  (1176) 
0.50653781008081855

>  <RMSD>  (1176) 
8.9468934519077538e-05

>  <CONVERGED>  (1176) 
0

>  <ENERGY>  (1176) 
73.734436799316413

$$$$
04638956-1108-4436-bf38-b50b0fc081d3
     RDKit          3D

 16 17  0  0  0  0  0  0  0  0999 V2000
   -3.0839   29.3325    3.6366 C   0  0  0  0  0  0  0  0  0  0  0  0
   -3.7731   29.0336    4.9710 C   0  0  2  0  0  0  0  0  0  0  0  0
   -4.6616   27.8716    4.8429 N   0  0  0  0  0  0  0  0  0  0  0  0
   -4.2427   26.5538    4.7819 C   0  0  0  0  0  0  0  0  0  0  0  0
   -2.9394   26.1369    5.0653 C   0  0  0  0  0  0  0  0  0  0  0  0
   -2.5969   24.7835    5.0622 C   0  0  0  0  0  0  0  0  0  0  0  0
   -3.5784   23.8434    4.7987 C   0  0  0  0  0  0  0  0  0  0  0  0
   -4.8330   24.2477    4.5595 N   0  0  0  0  0  4  0  0  0  0  0  0
   -5.1839   25.5434    4.5543 C   0  0  0  0  0  0  0  0  0  0  0  0
   -4.6163   30.1900    5.4898 C   0  0  0  0  0  0  0  0  0  0  0  0
   -4.6591   30.4441    6.8727 C   0  0  0  0  0  0  0  0  0  0  0  0
   -5.4411   31.4799    7.3905 C   0  0  0  0  0  0  0  0  0  0  0  0
   -6.2042   32.2722    6.5357 C   0  0  0  0  0  0  0  0  0  0  0  0
   -6.1842   32.0222    5.1671 C   0  0  0  0  0  0  0  0  0  0  0  0
   -7.1391   32.9844    4.1076 Cl  0  0  0  0  0  0  0  0  0  0  0  0
   -5.4024   30.9901    4.6430 C   0  0  0  0  0  0  0  0  0  0  0  0
  2  1  1  6
  2  3  1  0
  3  4  1  0
  4  5  2  0
  5  6  1  0
  6  7  2  0
  7  8  1  0
  8  9  2  0
  2 10  1  0
 10 11  2  0
 11 12  1  0
 12 13  2  0
 13 14  1  0
 14 15  1  0
 14 16  2  0
  9  4  1  0
 16 10  1  0
M  CHG  1   8   1
M  END
>  <Energy>  (1177) 
73.959768638761844

>  <Energy_Delta>  (1177) 
2.7501563579808419

>  <std_smi>  (1177) 
CC(Nc1cccnc1)c1cccc(Cl)c1

>  <enum_smi>  (1177) 
C[C@H](Nc1ccc[nH+]c1)c1cccc(Cl)c1

>  <enum_code>  (1177) 
M

>  <parent_uuid>  (1177) 
85d0fcce-c5b2-415e-8993-f2f147ae328b

>  <o3da_score>  (1177) 
68.050744357252185

>  <o3da_score_rel>  (1177) 
0.27091990077891975

>  <o3da_align>  (1177) 
0.25217983369284874

>  <RMSD>  (1177) 
0.175934915249358

>  <CONVERGED>  (1177) 
0

>  <ENERGY>  (1177) 
74.013627333572416

$$$$
04638956-1108-4436-bf38-b50b0fc081d3
     RDKit          3D

 16 17  0  0  0  0  0  0  0  0999 V2000
   -5.4140   28.6897    4.7389 C   0  0  0  0  0  0  0  0  0  0  0  0
   -4.0057   28.0887    4.7587 C   0  0  2  0  0  0  0  0  0  0  0  0
   -3.2540   28.5027    3.5709 N   0  0  0  0  0  0  0  0  0  0  0  0
   -2.7415   29.7672    3.3427 C   0  0  0  0  0  0  0  0  0  0  0  0
   -2.2600   30.0722    2.0633 C   0  0  0  0  0  0  0  0  0  0  0  0
   -1.6729   31.3052    1.7845 C   0  0  0  0  0  0  0  0  0  0  0  0
   -1.5489   32.2292    2.8070 C   0  0  0  0  0  0  0  0  0  0  0  0
   -1.9856   31.9202    4.0362 N   0  0  0  0  0  4  0  0  0  0  0  0
   -2.5555   30.7383    4.3274 C   0  0  0  0  0  0  0  0  0  0  0  0
   -3.9947   26.5689    4.8035 C   0  0  0  0  0  0  0  0  0  0  0  0
   -3.0167   25.9072    5.5678 C   0  0  0  0  0  0  0  0  0  0  0  0
   -2.9620   24.5116    5.6142 C   0  0  0  0  0  0  0  0  0  0  0  0
   -3.8770   23.7527    4.8880 C   0  0  0  0  0  0  0  0  0  0  0  0
   -4.8394   24.3934    4.1141 C   0  0  0  0  0  0  0  0  0  0  0  0
   -5.9621   23.4624    3.2016 Cl  0  0  0  0  0  0  0  0  0  0  0  0
   -4.9001   25.7880    4.0647 C   0  0  0  0  0  0  0  0  0  0  0  0
  2  1  1  6
  2  3  1  0
  3  4  1  0
  4  5  2  0
  5  6  1  0
  6  7  2  0
  7  8  1  0
  8  9  2  0
  2 10  1  0
 10 11  2  0
 11 12  1  0
 12 13  2  0
 13 14  1  0
 14 15  1  0
 14 16  2  0
  9  4  1  0
 16 10  1  0
M  CHG  1   8   1
M  END
>  <Energy>  (1178) 
73.998303693545893

>  <Energy_Delta>  (1178) 
2.7886914127648907

>  <std_smi>  (1178) 
CC(Nc1cccnc1)c1cccc(Cl)c1

>  <enum_smi>  (1178) 
C[C@H](Nc1ccc[nH+]c1)c1cccc(Cl)c1

>  <enum_code>  (1178) 
M

>  <parent_uuid>  (1178) 
85d0fcce-c5b2-415e-8993-f2f147ae328b

>  <o3da_score>  (1178) 
79.738141221874699

>  <o3da_score_rel>  (1178) 
0.31744912582757939

>  <o3da_align>  (1178) 
0.52547102970668913

>  <RMSD>  (1178) 
7.9347909612420268e-05

>  <CONVERGED>  (1178) 
0

>  <ENERGY>  (1178) 
73.998303644081744

$$$$
04638956-1108-4436-bf38-b50b0fc081d3
     RDKit          3D

 16 17  0  0  0  0  0  0  0  0999 V2000
   -2.6719   28.0442    5.8734 C   0  0  0  0  0  0  0  0  0  0  0  0
   -3.5689   28.9032    4.9794 C   0  0  2  0  0  0  0  0  0  0  0  0
   -4.7474   28.1336    4.5083 N   0  0  0  0  0  0  0  0  0  0  0  0
   -5.7618   27.9455    5.4603 C   0  0  0  0  0  0  0  0  0  0  0  0
   -6.6523   28.9656    5.7963 C   0  0  0  0  0  0  0  0  0  0  0  0
   -7.6324   28.7480    6.7633 C   0  0  0  0  0  0  0  0  0  0  0  0
   -7.7036   27.5097    7.3877 C   0  0  0  0  0  0  0  0  0  0  0  0
   -6.8301   26.5458    7.0586 N   0  0  0  0  0  4  0  0  0  0  0  0
   -5.8745   26.7271    6.1339 C   0  0  0  0  0  0  0  0  0  0  0  0
   -2.7982   29.3921    3.7633 C   0  0  0  0  0  0  0  0  0  0  0  0
   -2.4986   30.7564    3.6170 C   0  0  0  0  0  0  0  0  0  0  0  0
   -1.7895   31.2151    2.5036 C   0  0  0  0  0  0  0  0  0  0  0  0
   -1.3705   30.3182    1.5217 C   0  0  0  0  0  0  0  0  0  0  0  0
   -1.6610   28.9638    1.6565 C   0  0  0  0  0  0  0  0  0  0  0  0
   -1.1496   27.8526    0.4475 Cl  0  0  0  0  0  0  0  0  0  0  0  0
   -2.3674   28.4991    2.7660 C   0  0  0  0  0  0  0  0  0  0  0  0
  2  1  1  1
  2  3  1  0
  3  4  1  0
  4  5  2  0
  5  6  1  0
  6  7  2  0
  7  8  1  0
  8  9  2  0
  2 10  1  0
 10 11  2  0
 11 12  1  0
 12 13  2  0
 13 14  1  0
 14 15  1  0
 14 16  2  0
  9  4  1  0
 16 10  1  0
M  CHG  1   8   1
M  END
>  <Energy>  (1179) 
75.719227746851715

>  <Energy_Delta>  (1179) 
4.5096154660707128

>  <std_smi>  (1179) 
CC(Nc1cccnc1)c1cccc(Cl)c1

>  <enum_smi>  (1179) 
C[C@H](Nc1ccc[nH+]c1)c1cccc(Cl)c1

>  <enum_code>  (1179) 
M

>  <parent_uuid>  (1179) 
85d0fcce-c5b2-415e-8993-f2f147ae328b

>  <o3da_score>  (1179) 
66.212799596411941

>  <o3da_score_rel>  (1179) 
0.26360277564021573

>  <o3da_align>  (1179) 
0.39047506382025171

>  <RMSD>  (1179) 
7.0286994054325763e-05

>  <CONVERGED>  (1179) 
0

>  <ENERGY>  (1179) 
75.719227685209958

$$$$
04638956-1108-4436-bf38-b50b0fc081d3
     RDKit          3D

 16 17  0  0  0  0  0  0  0  0999 V2000
   -6.0950   28.5645    4.4551 C   0  0  0  0  0  0  0  0  0  0  0  0
   -4.8123   28.0729    5.1326 C   0  0  2  0  0  0  0  0  0  0  0  0
   -3.7384   29.0765    4.9778 N   0  0  0  0  0  0  0  0  0  0  0  0
   -3.0830   29.4275    3.8078 C   0  0  0  0  0  0  0  0  0  0  0  0
   -3.2214   28.7551    2.5915 C   0  0  0  0  0  0  0  0  0  0  0  0
   -2.4578   29.1030    1.4758 C   0  0  0  0  0  0  0  0  0  0  0  0
   -1.5274   30.1200    1.5920 C   0  0  0  0  0  0  0  0  0  0  0  0
   -1.3767   30.7442    2.7674 N   0  0  0  0  0  4  0  0  0  0  0  0
   -2.1038   30.4273    3.8505 C   0  0  0  0  0  0  0  0  0  0  0  0
   -4.3366   26.6645    4.8065 C   0  0  0  0  0  0  0  0  0  0  0  0
   -5.0956   25.7613    4.0434 C   0  0  0  0  0  0  0  0  0  0  0  0
   -4.6266   24.4698    3.7802 C   0  0  0  0  0  0  0  0  0  0  0  0
   -3.3943   24.0546    4.2806 C   0  0  0  0  0  0  0  0  0  0  0  0
   -2.6380   24.9299    5.0519 C   0  0  0  0  0  0  0  0  0  0  0  0
   -1.1132   24.4308    5.6716 Cl  0  0  0  0  0  0  0  0  0  0  0  0
   -3.1047   26.2164    5.3227 C   0  0  0  0  0  0  0  0  0  0  0  0
  2  1  1  6
  2  3  1  0
  3  4  1  0
  4  5  2  0
  5  6  1  0
  6  7  2  0
  7  8  1  0
  8  9  2  0
  2 10  1  0
 10 11  2  0
 11 12  1  0
 12 13  2  0
 13 14  1  0
 14 15  1  0
 14 16  2  0
  9  4  1  0
 16 10  1  0
M  CHG  1   8   1
M  END
>  <Energy>  (1180) 
77.065199028329133

>  <Energy_Delta>  (1180) 
5.8555867475481307

>  <std_smi>  (1180) 
CC(Nc1cccnc1)c1cccc(Cl)c1

>  <enum_smi>  (1180) 
C[C@H](Nc1ccc[nH+]c1)c1cccc(Cl)c1

>  <enum_code>  (1180) 
M

>  <parent_uuid>  (1180) 
85d0fcce-c5b2-415e-8993-f2f147ae328b

>  <o3da_score>  (1180) 
97.088981354962385

>  <o3da_score_rel>  (1180) 
0.38652534140296513

>  <o3da_align>  (1180) 
0.51568036967352526

>  <RMSD>  (1180) 
0.094413471553230321

>  <CONVERGED>  (1180) 
0

>  <ENERGY>  (1180) 
76.663607115652312

$$$$
04638956-1108-4436-bf38-b50b0fc081d3
     RDKit          3D

 16 17  0  0  0  0  0  0  0  0999 V2000
   -3.3639   29.1246    6.3912 C   0  0  0  0  0  0  0  0  0  0  0  0
   -3.6725   29.0308    4.8939 C   0  0  2  0  0  0  0  0  0  0  0  0
   -4.5694   27.8875    4.6243 N   0  0  0  0  0  0  0  0  0  0  0  0
   -4.2669   26.5405    4.7554 C   0  0  0  0  0  0  0  0  0  0  0  0
   -2.9828   26.0346    4.9689 C   0  0  0  0  0  0  0  0  0  0  0  0
   -2.7364   24.6608    5.0025 C   0  0  0  0  0  0  0  0  0  0  0  0
   -3.7878   23.7871    4.7931 C   0  0  0  0  0  0  0  0  0  0  0  0
   -5.0130   24.2748    4.5584 N   0  0  0  0  0  4  0  0  0  0  0  0
   -5.2705   25.5920    4.5250 C   0  0  0  0  0  0  0  0  0  0  0  0
   -2.5021   29.0839    3.9236 C   0  0  0  0  0  0  0  0  0  0  0  0
   -2.7516   29.0124    2.5390 C   0  0  0  0  0  0  0  0  0  0  0  0
   -1.7100   29.0750    1.6100 C   0  0  0  0  0  0  0  0  0  0  0  0
   -0.3957   29.2159    2.0473 C   0  0  0  0  0  0  0  0  0  0  0  0
   -0.1322   29.3012    3.4108 C   0  0  0  0  0  0  0  0  0  0  0  0
    1.4901   29.4719    3.9578 Cl  0  0  0  0  0  0  0  0  0  0  0  0
   -1.1713   29.2444    4.3437 C   0  0  0  0  0  0  0  0  0  0  0  0
  2  1  1  1
  2  3  1  0
  3  4  1  0
  4  5  2  0
  5  6  1  0
  6  7  2  0
  7  8  1  0
  8  9  2  0
  2 10  1  0
 10 11  2  0
 11 12  1  0
 12 13  2  0
 13 14  1  0
 14 15  1  0
 14 16  2  0
  9  4  1  0
 16 10  1  0
M  CHG  1   8   1
M  END
>  <Energy>  (1181) 
77.703775334338005

>  <Energy_Delta>  (1181) 
6.4941630535570027

>  <std_smi>  (1181) 
CC(Nc1cccnc1)c1cccc(Cl)c1

>  <enum_smi>  (1181) 
C[C@H](Nc1ccc[nH+]c1)c1cccc(Cl)c1

>  <enum_code>  (1181) 
M

>  <parent_uuid>  (1181) 
85d0fcce-c5b2-415e-8993-f2f147ae328b

>  <o3da_score>  (1181) 
78.15014883506646

>  <o3da_score_rel>  (1181) 
0.31112709740694655

>  <o3da_align>  (1181) 
0.37640947728022023

>  <RMSD>  (1181) 
0.13046237444901548

>  <CONVERGED>  (1181) 
0

>  <ENERGY>  (1181) 
77.351705787325756

$$$$
1d325381-875f-4147-894e-8ad9a9004542
     RDKit          3D

 16 17  0  0  0  0  0  0  0  0999 V2000
   -4.6578   28.3405    6.9568 C   0  0  0  0  0  0  0  0  0  0  0  0
   -4.5300   28.0909    5.4534 C   0  0  1  0  0  0  0  0  0  0  0  0
   -3.4896   29.0575    4.9132 N   0  0  0  0  0  4  0  0  0  0  0  0
   -3.4044   29.0784    3.4441 C   0  0  0  0  0  0  0  0  0  0  0  0
   -4.2402   29.9340    2.7306 C   0  0  0  0  0  0  0  0  0  0  0  0
   -4.1753   29.9538    1.3343 C   0  0  0  0  0  0  0  0  0  0  0  0
   -3.2769   29.1219    0.6708 C   0  0  0  0  0  0  0  0  0  0  0  0
   -2.4761   28.3100    1.3836 N   0  0  0  0  0  4  0  0  0  0  0  0
   -2.5049   28.2657    2.7318 C   0  0  0  0  0  0  0  0  0  0  0  0
   -4.1857   26.6572    5.1034 C   0  0  0  0  0  0  0  0  0  0  0  0
   -3.1453   25.9586    5.7399 C   0  0  0  0  0  0  0  0  0  0  0  0
   -2.8150   24.6588    5.3447 C   0  0  0  0  0  0  0  0  0  0  0  0
   -3.5067   24.0422    4.3033 C   0  0  0  0  0  0  0  0  0  0  0  0
   -4.5390   24.7216    3.6677 C   0  0  0  0  0  0  0  0  0  0  0  0
   -5.3702   23.9952    2.3530 Cl  0  0  0  0  0  0  0  0  0  0  0  0
   -4.8855   26.0146    4.0653 C   0  0  0  0  0  0  0  0  0  0  0  0
  2  1  1  1
  2  3  1  0
  3  4  1  0
  4  5  2  0
  5  6  1  0
  6  7  2  0
  7  8  1  0
  8  9  2  0
  2 10  1  0
 10 11  2  0
 11 12  1  0
 12 13  2  0
 13 14  1  0
 14 15  1  0
 14 16  2  0
  9  4  1  0
 16 10  1  0
M  CHG  2   3   1   8   1
M  END
>  <Energy>  (1182) 
130.31933164523048

>  <Energy_Delta>  (1182) 
0

>  <std_smi>  (1182) 
CC(Nc1cccnc1)c1cccc(Cl)c1

>  <enum_smi>  (1182) 
C[C@@H]([NH2+]c1ccc[nH+]c1)c1cccc(Cl)c1

>  <enum_code>  (1182) 
M

>  <parent_uuid>  (1182) 
85d0fcce-c5b2-415e-8993-f2f147ae328b

>  <o3da_score>  (1182) 
62.938444591416697

>  <o3da_score_rel>  (1182) 
0.25056709261504195

>  <o3da_align>  (1182) 
0.53914742978703056

>  <RMSD>  (1182) 
9.1884924316005683e-05

>  <CONVERGED>  (1182) 
0

>  <ENERGY>  (1182) 
130.3193315348482

$$$$
1d325381-875f-4147-894e-8ad9a9004542
     RDKit          3D

 16 17  0  0  0  0  0  0  0  0999 V2000
   -4.8052   28.3013    6.8690 C   0  0  0  0  0  0  0  0  0  0  0  0
   -4.6160   28.1117    5.3637 C   0  0  1  0  0  0  0  0  0  0  0  0
   -3.5727   29.1136    4.9000 N   0  0  0  0  0  4  0  0  0  0  0  0
   -3.3921   29.1510    3.4401 C   0  0  0  0  0  0  0  0  0  0  0  0
   -4.2143   29.9776    2.6780 C   0  0  0  0  0  0  0  0  0  0  0  0
   -4.0471   30.0254    1.2909 C   0  0  0  0  0  0  0  0  0  0  0  0
   -3.0607   29.2509    0.6852 C   0  0  0  0  0  0  0  0  0  0  0  0
   -2.2765   28.4655    1.4445 N   0  0  0  0  0  4  0  0  0  0  0  0
   -2.4047   28.3942    2.7857 C   0  0  0  0  0  0  0  0  0  0  0  0
   -4.2413   26.6913    4.9946 C   0  0  0  0  0  0  0  0  0  0  0  0
   -5.0238   25.9813    4.0671 C   0  0  0  0  0  0  0  0  0  0  0  0
   -4.6725   24.6850    3.6813 C   0  0  0  0  0  0  0  0  0  0  0  0
   -3.5331   24.0806    4.2091 C   0  0  0  0  0  0  0  0  0  0  0  0
   -2.7555   24.7692    5.1330 C   0  0  0  0  0  0  0  0  0  0  0  0
   -1.3329   24.0486    5.7689 Cl  0  0  0  0  0  0  0  0  0  0  0  0
   -3.1041   26.0622    5.5320 C   0  0  0  0  0  0  0  0  0  0  0  0
  2  1  1  1
  2  3  1  0
  3  4  1  0
  4  5  2  0
  5  6  1  0
  6  7  2  0
  7  8  1  0
  8  9  2  0
  2 10  1  0
 10 11  2  0
 11 12  1  0
 12 13  2  0
 13 14  1  0
 14 15  1  0
 14 16  2  0
  9  4  1  0
 16 10  1  0
M  CHG  2   3   1   8   1
M  END
>  <Energy>  (1183) 
130.83374599494127

>  <Energy_Delta>  (1183) 
0.51441434971079048

>  <std_smi>  (1183) 
CC(Nc1cccnc1)c1cccc(Cl)c1

>  <enum_smi>  (1183) 
C[C@@H]([NH2+]c1ccc[nH+]c1)c1cccc(Cl)c1

>  <enum_code>  (1183) 
M

>  <parent_uuid>  (1183) 
85d0fcce-c5b2-415e-8993-f2f147ae328b

>  <o3da_score>  (1183) 
73.655595050757483

>  <o3da_score_rel>  (1183) 
0.29323362575147099

>  <o3da_align>  (1183) 
0.43285891228249657

>  <RMSD>  (1183) 
8.9703069552263707e-05

>  <CONVERGED>  (1183) 
0

>  <ENERGY>  (1183) 
130.83374579152513

$$$$
1d325381-875f-4147-894e-8ad9a9004542
     RDKit          3D

 16 17  0  0  0  0  0  0  0  0999 V2000
   -4.2138   30.3983    5.2651 C   0  0  0  0  0  0  0  0  0  0  0  0
   -3.6844   29.0551    4.7600 C   0  0  1  0  0  0  0  0  0  0  0  0
   -4.6722   27.9833    5.1857 N   0  0  0  0  0  4  0  0  0  0  0  0
   -4.2428   26.6069    4.8874 C   0  0  0  0  0  0  0  0  0  0  0  0
   -4.7605   25.9658    3.7630 C   0  0  0  0  0  0  0  0  0  0  0  0
   -4.3616   24.6601    3.4653 C   0  0  0  0  0  0  0  0  0  0  0  0
   -3.4588   24.0078    4.2991 C   0  0  0  0  0  0  0  0  0  0  0  0
   -2.9825   24.6426    5.3853 N   0  0  0  0  0  4  0  0  0  0  0  0
   -3.3424   25.9042    5.7043 C   0  0  0  0  0  0  0  0  0  0  0  0
   -3.4267   29.0331    3.2684 C   0  0  0  0  0  0  0  0  0  0  0  0
   -4.3849   29.4666    2.3358 C   0  0  0  0  0  0  0  0  0  0  0  0
   -4.1342   29.3771    0.9631 C   0  0  0  0  0  0  0  0  0  0  0  0
   -2.9313   28.8466    0.4999 C   0  0  0  0  0  0  0  0  0  0  0  0
   -1.9747   28.4181    1.4119 C   0  0  0  0  0  0  0  0  0  0  0  0
   -0.4988   27.7341    0.8612 Cl  0  0  0  0  0  0  0  0  0  0  0  0
   -2.2114   28.5149    2.7850 C   0  0  0  0  0  0  0  0  0  0  0  0
  2  1  1  6
  2  3  1  0
  3  4  1  0
  4  5  2  0
  5  6  1  0
  6  7  2  0
  7  8  1  0
  8  9  2  0
  2 10  1  0
 10 11  2  0
 11 12  1  0
 12 13  2  0
 13 14  1  0
 14 15  1  0
 14 16  2  0
  9  4  1  0
 16 10  1  0
M  CHG  2   3   1   8   1
M  END
>  <Energy>  (1184) 
132.87297213747789

>  <Energy_Delta>  (1184) 
2.5536404922474105

>  <std_smi>  (1184) 
CC(Nc1cccnc1)c1cccc(Cl)c1

>  <enum_smi>  (1184) 
C[C@@H]([NH2+]c1ccc[nH+]c1)c1cccc(Cl)c1

>  <enum_code>  (1184) 
M

>  <parent_uuid>  (1184) 
85d0fcce-c5b2-415e-8993-f2f147ae328b

>  <o3da_score>  (1184) 
74.610870122020799

>  <o3da_score_rel>  (1184) 
0.29703671460770115

>  <o3da_align>  (1184) 
0.53027406116536968

>  <RMSD>  (1184) 
0.00017898900680429823

>  <CONVERGED>  (1184) 
0

>  <ENERGY>  (1184) 
132.87297218824042

$$$$
1d325381-875f-4147-894e-8ad9a9004542
     RDKit          3D

 16 17  0  0  0  0  0  0  0  0999 V2000
   -3.7787   28.9887    6.5172 C   0  0  0  0  0  0  0  0  0  0  0  0
   -4.5802   28.2444    5.4465 C   0  0  1  0  0  0  0  0  0  0  0  0
   -4.7436   29.1323    4.2220 N   0  0  0  0  0  4  0  0  0  0  0  0
   -3.5396   29.3187    3.3950 C   0  0  0  0  0  0  0  0  0  0  0  0
   -2.7462   30.4460    3.5961 C   0  0  0  0  0  0  0  0  0  0  0  0
   -1.6148   30.6464    2.7998 C   0  0  0  0  0  0  0  0  0  0  0  0
   -1.2959   29.7245    1.8065 C   0  0  0  0  0  0  0  0  0  0  0  0
   -2.0854   28.6520    1.6216 N   0  0  0  0  0  4  0  0  0  0  0  0
   -3.1864   28.4257    2.3679 C   0  0  0  0  0  0  0  0  0  0  0  0
   -4.1017   26.8519    5.0843 C   0  0  0  0  0  0  0  0  0  0  0  0
   -2.7882   26.4102    5.3183 C   0  0  0  0  0  0  0  0  0  0  0  0
   -2.3833   25.1303    4.9258 C   0  0  0  0  0  0  0  0  0  0  0  0
   -3.2780   24.2730    4.2886 C   0  0  0  0  0  0  0  0  0  0  0  0
   -4.5822   24.6921    4.0575 C   0  0  0  0  0  0  0  0  0  0  0  0
   -5.6898   23.6585    3.2508 Cl  0  0  0  0  0  0  0  0  0  0  0  0
   -4.9975   25.9659    4.4540 C   0  0  0  0  0  0  0  0  0  0  0  0
  2  1  1  1
  2  3  1  0
  3  4  1  0
  4  5  2  0
  5  6  1  0
  6  7  2  0
  7  8  1  0
  8  9  2  0
  2 10  1  0
 10 11  2  0
 11 12  1  0
 12 13  2  0
 13 14  1  0
 14 15  1  0
 14 16  2  0
  9  4  1  0
 16 10  1  0
M  CHG  2   3   1   8   1
M  END
>  <Energy>  (1185) 
132.98566276857488

>  <Energy_Delta>  (1185) 
2.6663311233444063

>  <std_smi>  (1185) 
CC(Nc1cccnc1)c1cccc(Cl)c1

>  <enum_smi>  (1185) 
C[C@@H]([NH2+]c1ccc[nH+]c1)c1cccc(Cl)c1

>  <enum_code>  (1185) 
M

>  <parent_uuid>  (1185) 
85d0fcce-c5b2-415e-8993-f2f147ae328b

>  <o3da_score>  (1185) 
79.532961952703843

>  <o3da_score_rel>  (1185) 
0.31663227734530802

>  <o3da_align>  (1185) 
0.60177307280918713

>  <RMSD>  (1185) 
9.7094045360102111e-05

>  <CONVERGED>  (1185) 
0

>  <ENERGY>  (1185) 
132.98566253185913

$$$$
1d325381-875f-4147-894e-8ad9a9004542
     RDKit          3D

 16 17  0  0  0  0  0  0  0  0999 V2000
   -4.1911   30.3794    5.0931 C   0  0  0  0  0  0  0  0  0  0  0  0
   -3.6699   29.0046    4.6730 C   0  0  1  0  0  0  0  0  0  0  0  0
   -4.6532   27.9655    5.1811 N   0  0  0  0  0  4  0  0  0  0  0  0
   -4.2582   26.5714    4.9211 C   0  0  0  0  0  0  0  0  0  0  0  0
   -4.8706   25.8783    3.8782 C   0  0  0  0  0  0  0  0  0  0  0  0
   -4.5165   24.5501    3.6269 C   0  0  0  0  0  0  0  0  0  0  0  0
   -3.5635   23.9276    4.4266 C   0  0  0  0  0  0  0  0  0  0  0  0
   -2.9948   24.6131    5.4347 N   0  0  0  0  0  4  0  0  0  0  0  0
   -3.3087   25.8979    5.7061 C   0  0  0  0  0  0  0  0  0  0  0  0
   -3.4307   28.9080    3.1818 C   0  0  0  0  0  0  0  0  0  0  0  0
   -2.1477   28.6017    2.6956 C   0  0  0  0  0  0  0  0  0  0  0  0
   -1.9156   28.4773    1.3230 C   0  0  0  0  0  0  0  0  0  0  0  0
   -2.9588   28.6532    0.4159 C   0  0  0  0  0  0  0  0  0  0  0  0
   -4.2296   28.9672    0.8833 C   0  0  0  0  0  0  0  0  0  0  0  0
   -5.5282   29.1723   -0.2214 Cl  0  0  0  0  0  0  0  0  0  0  0  0
   -4.4691   29.1024    2.2533 C   0  0  0  0  0  0  0  0  0  0  0  0
  2  1  1  6
  2  3  1  0
  3  4  1  0
  4  5  2  0
  5  6  1  0
  6  7  2  0
  7  8  1  0
  8  9  2  0
  2 10  1  0
 10 11  2  0
 11 12  1  0
 12 13  2  0
 13 14  1  0
 14 15  1  0
 14 16  2  0
  9  4  1  0
 16 10  1  0
M  CHG  2   3   1   8   1
M  END
>  <Energy>  (1186) 
133.60834288238664

>  <Energy_Delta>  (1186) 
3.28901123715616

>  <std_smi>  (1186) 
CC(Nc1cccnc1)c1cccc(Cl)c1

>  <enum_smi>  (1186) 
C[C@@H]([NH2+]c1ccc[nH+]c1)c1cccc(Cl)c1

>  <enum_code>  (1186) 
M

>  <parent_uuid>  (1186) 
85d0fcce-c5b2-415e-8993-f2f147ae328b

>  <o3da_score>  (1186) 
74.582508589047293

>  <o3da_score_rel>  (1186) 
0.29692380322411976

>  <o3da_align>  (1186) 
0.48063850815178344

>  <RMSD>  (1186) 
7.4971934374100401e-05

>  <CONVERGED>  (1186) 
0

>  <ENERGY>  (1186) 
133.60834290614929

$$$$
1d325381-875f-4147-894e-8ad9a9004542
     RDKit          3D

 16 17  0  0  0  0  0  0  0  0999 V2000
   -5.7597   28.7279    2.8659 C   0  0  0  0  0  0  0  0  0  0  0  0
   -4.6575   29.0164    3.8874 C   0  0  1  0  0  0  0  0  0  0  0  0
   -4.7539   28.0255    5.0373 N   0  0  0  0  0  4  0  0  0  0  0  0
   -4.2821   26.6571    4.7644 C   0  0  0  0  0  0  0  0  0  0  0  0
   -2.9582   26.3273    5.0541 C   0  0  0  0  0  0  0  0  0  0  0  0
   -2.4967   25.0302    4.8151 C   0  0  0  0  0  0  0  0  0  0  0  0
   -3.3670   24.0727    4.3049 C   0  0  0  0  0  0  0  0  0  0  0  0
   -4.6453   24.4073    4.0533 N   0  0  0  0  0  4  0  0  0  0  0  0
   -5.1262   25.6502    4.2693 C   0  0  0  0  0  0  0  0  0  0  0  0
   -3.2523   29.1391    3.3366 C   0  0  0  0  0  0  0  0  0  0  0  0
   -2.3247   29.9706    3.9921 C   0  0  0  0  0  0  0  0  0  0  0  0
   -1.0033   30.0626    3.5456 C   0  0  0  0  0  0  0  0  0  0  0  0
   -0.5815   29.3205    2.4446 C   0  0  0  0  0  0  0  0  0  0  0  0
   -1.4872   28.4987    1.7852 C   0  0  0  0  0  0  0  0  0  0  0  0
   -0.9779   27.5505    0.4463 Cl  0  0  0  0  0  0  0  0  0  0  0  0
   -2.8136   28.4106    2.2174 C   0  0  0  0  0  0  0  0  0  0  0  0
  2  1  1  6
  2  3  1  0
  3  4  1  0
  4  5  2  0
  5  6  1  0
  6  7  2  0
  7  8  1  0
  8  9  2  0
  2 10  1  0
 10 11  2  0
 11 12  1  0
 12 13  2  0
 13 14  1  0
 14 15  1  0
 14 16  2  0
  9  4  1  0
 16 10  1  0
M  CHG  2   3   1   8   1
M  END
>  <Energy>  (1187) 
134.65855221069651

>  <Energy_Delta>  (1187) 
4.3392205654660359

>  <std_smi>  (1187) 
CC(Nc1cccnc1)c1cccc(Cl)c1

>  <enum_smi>  (1187) 
C[C@@H]([NH2+]c1ccc[nH+]c1)c1cccc(Cl)c1

>  <enum_code>  (1187) 
M

>  <parent_uuid>  (1187) 
85d0fcce-c5b2-415e-8993-f2f147ae328b

>  <o3da_score>  (1187) 
72.158597768156312

>  <o3da_score_rel>  (1187) 
0.28727386206190009

>  <o3da_align>  (1187) 
0.49152157405705332

>  <RMSD>  (1187) 
7.636841477416499e-05

>  <CONVERGED>  (1187) 
0

>  <ENERGY>  (1187) 
134.65855208224394

$$$$
1d325381-875f-4147-894e-8ad9a9004542
     RDKit          3D

 16 17  0  0  0  0  0  0  0  0999 V2000
   -4.2511   31.4734    3.7239 C   0  0  0  0  0  0  0  0  0  0  0  0
   -3.4915   30.1462    3.6886 C   0  0  1  0  0  0  0  0  0  0  0  0
   -2.0029   30.3986    3.8112 N   0  0  0  0  0  4  0  0  0  0  0  0
   -1.3746   31.0204    2.6416 C   0  0  0  0  0  0  0  0  0  0  0  0
   -1.0480   30.2247    1.5455 C   0  0  0  0  0  0  0  0  0  0  0  0
   -0.4207   30.8003    0.4369 C   0  0  0  0  0  0  0  0  0  0  0  0
   -0.1203   32.1598    0.4411 C   0  0  0  0  0  0  0  0  0  0  0  0
   -0.4373   32.9045    1.5156 N   0  0  0  0  0  4  0  0  0  0  0  0
   -1.0440   32.3852    2.6040 C   0  0  0  0  0  0  0  0  0  0  0  0
   -3.9188   29.1883    4.7814 C   0  0  0  0  0  0  0  0  0  0  0  0
   -4.2032   27.8487    4.4634 C   0  0  0  0  0  0  0  0  0  0  0  0
   -4.5608   26.9377    5.4614 C   0  0  0  0  0  0  0  0  0  0  0  0
   -4.6334   27.3458    6.7918 C   0  0  0  0  0  0  0  0  0  0  0  0
   -4.3524   28.6664    7.1202 C   0  0  0  0  0  0  0  0  0  0  0  0
   -4.4257   29.1830    8.7569 Cl  0  0  0  0  0  0  0  0  0  0  0  0
   -3.9963   29.5851    6.1284 C   0  0  0  0  0  0  0  0  0  0  0  0
  2  1  1  1
  2  3  1  0
  3  4  1  0
  4  5  2  0
  5  6  1  0
  6  7  2  0
  7  8  1  0
  8  9  2  0
  2 10  1  0
 10 11  2  0
 11 12  1  0
 12 13  2  0
 13 14  1  0
 14 15  1  0
 14 16  2  0
  9  4  1  0
 16 10  1  0
M  CHG  2   3   1   8   1
M  END
>  <Energy>  (1188) 
134.80506055701196

>  <Energy_Delta>  (1188) 
4.4857289117814787

>  <std_smi>  (1188) 
CC(Nc1cccnc1)c1cccc(Cl)c1

>  <enum_smi>  (1188) 
C[C@@H]([NH2+]c1ccc[nH+]c1)c1cccc(Cl)c1

>  <enum_code>  (1188) 
M

>  <parent_uuid>  (1188) 
85d0fcce-c5b2-415e-8993-f2f147ae328b

>  <o3da_score>  (1188) 
74.685403127672643

>  <o3da_score_rel>  (1188) 
0.29733344133253969

>  <o3da_align>  (1188) 
0.45278455432594844

>  <RMSD>  (1188) 
7.8479197457469895e-05

>  <CONVERGED>  (1188) 
0

>  <ENERGY>  (1188) 
134.80506052058215

$$$$
1d325381-875f-4147-894e-8ad9a9004542
     RDKit          3D

 16 17  0  0  0  0  0  0  0  0999 V2000
   -4.1347   31.6386    3.9505 C   0  0  0  0  0  0  0  0  0  0  0  0
   -3.5197   30.2581    3.7139 C   0  0  1  0  0  0  0  0  0  0  0  0
   -2.0091   30.3540    3.7737 N   0  0  0  0  0  4  0  0  0  0  0  0
   -1.3794   31.0062    2.6216 C   0  0  0  0  0  0  0  0  0  0  0  0
   -1.1814   30.2714    1.4543 C   0  0  0  0  0  0  0  0  0  0  0  0
   -0.5551   30.8713    0.3582 C   0  0  0  0  0  0  0  0  0  0  0  0
   -0.1274   32.1932    0.4451 C   0  0  0  0  0  0  0  0  0  0  0  0
   -0.3217   32.8783    1.5864 N   0  0  0  0  0  4  0  0  0  0  0  0
   -0.9231   32.3338    2.6655 C   0  0  0  0  0  0  0  0  0  0  0  0
   -3.9797   29.2052    4.7012 C   0  0  0  0  0  0  0  0  0  0  0  0
   -4.1033   29.4623    6.0774 C   0  0  0  0  0  0  0  0  0  0  0  0
   -4.4859   28.4475    6.9605 C   0  0  0  0  0  0  0  0  0  0  0  0
   -4.7411   27.1614    6.4881 C   0  0  0  0  0  0  0  0  0  0  0  0
   -4.6170   26.8923    5.1308 C   0  0  0  0  0  0  0  0  0  0  0  0
   -4.9150   25.3096    4.5340 Cl  0  0  0  0  0  0  0  0  0  0  0  0
   -4.2380   27.9006    4.2409 C   0  0  0  0  0  0  0  0  0  0  0  0
  2  1  1  1
  2  3  1  0
  3  4  1  0
  4  5  2  0
  5  6  1  0
  6  7  2  0
  7  8  1  0
  8  9  2  0
  2 10  1  0
 10 11  2  0
 11 12  1  0
 12 13  2  0
 13 14  1  0
 14 15  1  0
 14 16  2  0
  9  4  1  0
 16 10  1  0
M  CHG  2   3   1   8   1
M  END
>  <Energy>  (1189) 
134.9636586539911

>  <Energy_Delta>  (1189) 
4.6443270087606265

>  <std_smi>  (1189) 
CC(Nc1cccnc1)c1cccc(Cl)c1

>  <enum_smi>  (1189) 
C[C@@H]([NH2+]c1ccc[nH+]c1)c1cccc(Cl)c1

>  <enum_code>  (1189) 
M

>  <parent_uuid>  (1189) 
85d0fcce-c5b2-415e-8993-f2f147ae328b

>  <o3da_score>  (1189) 
81.729163588831696

>  <o3da_score_rel>  (1189) 
0.32537567515777954

>  <o3da_align>  (1189) 
0.46577140520192989

>  <RMSD>  (1189) 
8.1521723931063364e-05

>  <CONVERGED>  (1189) 
0

>  <ENERGY>  (1189) 
134.96365861217541

$$$$
1d325381-875f-4147-894e-8ad9a9004542
     RDKit          3D

 16 17  0  0  0  0  0  0  0  0999 V2000
   -2.9032   28.6960    6.3191 C   0  0  0  0  0  0  0  0  0  0  0  0
   -3.0790   28.4362    4.8224 C   0  0  1  0  0  0  0  0  0  0  0  0
   -4.5191   28.0822    4.5207 N   0  0  0  0  0  4  0  0  0  0  0  0
   -4.9313   26.7335    4.9216 C   0  0  0  0  0  0  0  0  0  0  0  0
   -5.6336   26.5648    6.1126 C   0  0  0  0  0  0  0  0  0  0  0  0
   -6.0596   25.2876    6.4882 C   0  0  0  0  0  0  0  0  0  0  0  0
   -5.7876   24.1981    5.6653 C   0  0  0  0  0  0  0  0  0  0  0  0
   -5.1168   24.3886    4.5149 N   0  0  0  0  0  4  0  0  0  0  0  0
   -4.6876   25.6059    4.1193 C   0  0  0  0  0  0  0  0  0  0  0  0
   -2.6724   29.6082    3.9533 C   0  0  0  0  0  0  0  0  0  0  0  0
   -3.0832   30.9240    4.2286 C   0  0  0  0  0  0  0  0  0  0  0  0
   -2.7269   31.9747    3.3773 C   0  0  0  0  0  0  0  0  0  0  0  0
   -1.9651   31.7294    2.2363 C   0  0  0  0  0  0  0  0  0  0  0  0
   -1.5560   30.4327    1.9508 C   0  0  0  0  0  0  0  0  0  0  0  0
   -0.6284   30.1098    0.5417 Cl  0  0  0  0  0  0  0  0  0  0  0  0
   -1.9046   29.3771    2.7975 C   0  0  0  0  0  0  0  0  0  0  0  0
  2  1  1  1
  2  3  1  0
  3  4  1  0
  4  5  2  0
  5  6  1  0
  6  7  2  0
  7  8  1  0
  8  9  2  0
  2 10  1  0
 10 11  2  0
 11 12  1  0
 12 13  2  0
 13 14  1  0
 14 15  1  0
 14 16  2  0
  9  4  1  0
 16 10  1  0
M  CHG  2   3   1   8   1
M  END
>  <Energy>  (1190) 
134.98601620046603

>  <Energy_Delta>  (1190) 
4.6666845552355483

>  <std_smi>  (1190) 
CC(Nc1cccnc1)c1cccc(Cl)c1

>  <enum_smi>  (1190) 
C[C@@H]([NH2+]c1ccc[nH+]c1)c1cccc(Cl)c1

>  <enum_code>  (1190) 
M

>  <parent_uuid>  (1190) 
85d0fcce-c5b2-415e-8993-f2f147ae328b

>  <o3da_score>  (1190) 
68.618312456800339

>  <o3da_score_rel>  (1190) 
0.27317947184852676

>  <o3da_align>  (1190) 
0.68948788035908604

>  <RMSD>  (1190) 
6.8467240828100524e-05

>  <CONVERGED>  (1190) 
0

>  <ENERGY>  (1190) 
134.98601611548088

$$$$
1d325381-875f-4147-894e-8ad9a9004542
     RDKit          3D

 16 17  0  0  0  0  0  0  0  0999 V2000
   -1.8928   28.1843    3.4483 C   0  0  0  0  0  0  0  0  0  0  0  0
   -2.5760   29.4670    3.9235 C   0  0  1  0  0  0  0  0  0  0  0  0
   -2.9894   30.3125    2.7381 N   0  0  0  0  0  4  0  0  0  0  0  0
   -1.8938   30.9736    2.0221 C   0  0  0  0  0  0  0  0  0  0  0  0
   -1.4160   30.4064    0.8428 C   0  0  0  0  0  0  0  0  0  0  0  0
   -0.3955   31.0452    0.1327 C   0  0  0  0  0  0  0  0  0  0  0  0
    0.1270   32.2463    0.6039 C   0  0  0  0  0  0  0  0  0  0  0  0
   -0.3585   32.7792    1.7396 N   0  0  0  0  0  4  0  0  0  0  0  0
   -1.3417   32.1912    2.4539 C   0  0  0  0  0  0  0  0  0  0  0  0
   -3.7908   29.1965    4.7870 C   0  0  0  0  0  0  0  0  0  0  0  0
   -3.9009   29.7975    6.0528 C   0  0  0  0  0  0  0  0  0  0  0  0
   -5.0311   29.5855    6.8478 C   0  0  0  0  0  0  0  0  0  0  0  0
   -6.0696   28.7762    6.3913 C   0  0  0  0  0  0  0  0  0  0  0  0
   -5.9727   28.1749    5.1422 C   0  0  0  0  0  0  0  0  0  0  0  0
   -7.2483   27.1818    4.5617 Cl  0  0  0  0  0  0  0  0  0  0  0  0
   -4.8454   28.3789    4.3415 C   0  0  0  0  0  0  0  0  0  0  0  0
  2  1  1  6
  2  3  1  0
  3  4  1  0
  4  5  2  0
  5  6  1  0
  6  7  2  0
  7  8  1  0
  8  9  2  0
  2 10  1  0
 10 11  2  0
 11 12  1  0
 12 13  2  0
 13 14  1  0
 14 15  1  0
 14 16  2  0
  9  4  1  0
 16 10  1  0
M  CHG  2   3   1   8   1
M  END
>  <Energy>  (1191) 
135.22103186302459

>  <Energy_Delta>  (1191) 
4.9017002177941151

>  <std_smi>  (1191) 
CC(Nc1cccnc1)c1cccc(Cl)c1

>  <enum_smi>  (1191) 
C[C@@H]([NH2+]c1ccc[nH+]c1)c1cccc(Cl)c1

>  <enum_code>  (1191) 
M

>  <parent_uuid>  (1191) 
85d0fcce-c5b2-415e-8993-f2f147ae328b

>  <o3da_score>  (1191) 
71.595628097042379

>  <o3da_score_rel>  (1191) 
0.28503259800402247

>  <o3da_align>  (1191) 
0.56583861636252364

>  <RMSD>  (1191) 
0.00022546028697558975

>  <CONVERGED>  (1191) 
0

>  <ENERGY>  (1191) 
135.22103202595562

$$$$
575b8d2f-87b1-4bf5-abcb-17fc39772077
     RDKit          3D

 16 17  0  0  0  0  0  0  0  0999 V2000
   -4.6418   28.3178    6.8726 C   0  0  0  0  0  0  0  0  0  0  0  0
   -4.4982   28.1155    5.3620 C   0  0  1  0  0  0  0  0  0  0  0  0
   -3.4648   29.0961    4.8694 N   0  0  0  0  0  4  0  0  0  0  0  0
   -3.4590   29.2378    3.4130 C   0  0  0  0  0  0  0  0  0  0  0  0
   -2.5256   28.5473    2.6447 C   0  0  0  0  0  0  0  0  0  0  0  0
   -2.5387   28.7080    1.2589 C   0  0  0  0  0  0  0  0  0  0  0  0
   -3.4804   29.5573    0.6975 C   0  0  0  0  0  0  0  0  0  0  0  0
   -4.3904   30.2427    1.4261 N   0  0  0  0  0  0  0  0  0  0  0  0
   -4.3610   30.0761    2.7643 C   0  0  0  0  0  0  0  0  0  0  0  0
   -4.1574   26.6853    4.9948 C   0  0  0  0  0  0  0  0  0  0  0  0
   -4.9147   26.0185    4.0154 C   0  0  0  0  0  0  0  0  0  0  0  0
   -4.5986   24.7123    3.6331 C   0  0  0  0  0  0  0  0  0  0  0  0
   -3.5200   24.0526    4.2185 C   0  0  0  0  0  0  0  0  0  0  0  0
   -2.7622   24.7010    5.1872 C   0  0  0  0  0  0  0  0  0  0  0  0
   -1.4214   23.9017    5.9067 Cl  0  0  0  0  0  0  0  0  0  0  0  0
   -3.0723   26.0066    5.5770 C   0  0  0  0  0  0  0  0  0  0  0  0
  2  1  1  1
  2  3  1  0
  3  4  1  0
  4  5  2  0
  5  6  1  0
  6  7  2  0
  7  8  1  0
  8  9  2  0
  2 10  1  0
 10 11  2  0
 11 12  1  0
 12 13  2  0
 13 14  1  0
 14 15  1  0
 14 16  2  0
  9  4  1  0
 16 10  1  0
M  CHG  1   3   1
M  END
>  <Energy>  (1192) 
49.635962892295176

>  <Energy_Delta>  (1192) 
0

>  <std_smi>  (1192) 
CC(Nc1cccnc1)c1cccc(Cl)c1

>  <enum_smi>  (1192) 
C[C@@H]([NH2+]c1cccnc1)c1cccc(Cl)c1

>  <enum_code>  (1192) 
M

>  <parent_uuid>  (1192) 
85d0fcce-c5b2-415e-8993-f2f147ae328b

>  <o3da_score>  (1192) 
72.077143816911004

>  <o3da_score_rel>  (1192) 
0.28694958204706911

>  <o3da_align>  (1192) 
0.47484243415312899

>  <RMSD>  (1192) 
8.4526699944175519e-05

>  <CONVERGED>  (1192) 
0

>  <ENERGY>  (1192) 
49.635962800741652

$$$$
575b8d2f-87b1-4bf5-abcb-17fc39772077
     RDKit          3D

 16 17  0  0  0  0  0  0  0  0999 V2000
   -3.9183   30.2925    5.4952 C   0  0  0  0  0  0  0  0  0  0  0  0
   -3.5730   28.9708    4.8040 C   0  0  1  0  0  0  0  0  0  0  0  0
   -4.6441   27.9752    5.1694 N   0  0  0  0  0  4  0  0  0  0  0  0
   -4.2562   26.5910    4.8959 C   0  0  0  0  0  0  0  0  0  0  0  0
   -4.6650   25.9666    3.7206 C   0  0  0  0  0  0  0  0  0  0  0  0
   -4.2813   24.6456    3.4881 C   0  0  0  0  0  0  0  0  0  0  0  0
   -3.5116   23.9994    4.4437 C   0  0  0  0  0  0  0  0  0  0  0  0
   -3.1129   24.5845    5.5959 N   0  0  0  0  0  0  0  0  0  0  0  0
   -3.4930   25.8618    5.8030 C   0  0  0  0  0  0  0  0  0  0  0  0
   -3.4144   29.1121    3.3031 C   0  0  0  0  0  0  0  0  0  0  0  0
   -4.3650   29.7766    2.5082 C   0  0  0  0  0  0  0  0  0  0  0  0
   -4.2070   29.8523    1.1214 C   0  0  0  0  0  0  0  0  0  0  0  0
   -3.1048   29.2610    0.5067 C   0  0  0  0  0  0  0  0  0  0  0  0
   -2.1595   28.5974    1.2808 C   0  0  0  0  0  0  0  0  0  0  0  0
   -0.8047   27.8529    0.5304 Cl  0  0  0  0  0  0  0  0  0  0  0  0
   -2.3072   28.5211    2.6671 C   0  0  0  0  0  0  0  0  0  0  0  0
  2  1  1  6
  2  3  1  0
  3  4  1  0
  4  5  2  0
  5  6  1  0
  6  7  2  0
  7  8  1  0
  8  9  2  0
  2 10  1  0
 10 11  2  0
 11 12  1  0
 12 13  2  0
 13 14  1  0
 14 15  1  0
 14 16  2  0
  9  4  1  0
 16 10  1  0
M  CHG  1   3   1
M  END
>  <Energy>  (1193) 
49.778196784820281

>  <Energy_Delta>  (1193) 
0.14223389252510543

>  <std_smi>  (1193) 
CC(Nc1cccnc1)c1cccc(Cl)c1

>  <enum_smi>  (1193) 
C[C@@H]([NH2+]c1cccnc1)c1cccc(Cl)c1

>  <enum_code>  (1193) 
M

>  <parent_uuid>  (1193) 
85d0fcce-c5b2-415e-8993-f2f147ae328b

>  <o3da_score>  (1193) 
74.693122782647507

>  <o3da_score_rel>  (1193) 
0.29736417440062868

>  <o3da_align>  (1193) 
0.55501638200925174

>  <RMSD>  (1193) 
6.5055514046563338e-05

>  <CONVERGED>  (1193) 
0

>  <ENERGY>  (1193) 
49.778196812392068

$$$$
575b8d2f-87b1-4bf5-abcb-17fc39772077
     RDKit          3D

 16 17  0  0  0  0  0  0  0  0999 V2000
   -4.6902   28.3068    6.8291 C   0  0  0  0  0  0  0  0  0  0  0  0
   -4.4614   28.1188    5.3270 C   0  0  1  0  0  0  0  0  0  0  0  0
   -3.3861   29.0869    4.9065 N   0  0  0  0  0  4  0  0  0  0  0  0
   -3.3537   29.3137    3.4613 C   0  0  0  0  0  0  0  0  0  0  0  0
   -4.1371   30.3201    2.9014 C   0  0  0  0  0  0  0  0  0  0  0  0
   -4.0792   30.5359    1.5241 C   0  0  0  0  0  0  0  0  0  0  0  0
   -3.2365   29.7406    0.7624 C   0  0  0  0  0  0  0  0  0  0  0  0
   -2.4647   28.7628    1.2870 N   0  0  0  0  0  0  0  0  0  0  0  0
   -2.5328   28.5677    2.6209 C   0  0  0  0  0  0  0  0  0  0  0  0
   -4.1171   26.6888    4.9629 C   0  0  0  0  0  0  0  0  0  0  0  0
   -4.8094   26.0495    3.9195 C   0  0  0  0  0  0  0  0  0  0  0  0
   -4.4843   24.7449    3.5392 C   0  0  0  0  0  0  0  0  0  0  0  0
   -3.4627   24.0584    4.1921 C   0  0  0  0  0  0  0  0  0  0  0  0
   -2.7702   24.6787    5.2258 C   0  0  0  0  0  0  0  0  0  0  0  0
   -1.5016   23.8456    6.0324 Cl  0  0  0  0  0  0  0  0  0  0  0  0
   -3.0884   25.9834    5.6124 C   0  0  0  0  0  0  0  0  0  0  0  0
  2  1  1  1
  2  3  1  0
  3  4  1  0
  4  5  2  0
  5  6  1  0
  6  7  2  0
  7  8  1  0
  8  9  2  0
  2 10  1  0
 10 11  2  0
 11 12  1  0
 12 13  2  0
 13 14  1  0
 14 15  1  0
 14 16  2  0
  9  4  1  0
 16 10  1  0
M  CHG  1   3   1
M  END
>  <Energy>  (1194) 
49.816646030538791

>  <Energy_Delta>  (1194) 
0.18068313824361582

>  <std_smi>  (1194) 
CC(Nc1cccnc1)c1cccc(Cl)c1

>  <enum_smi>  (1194) 
C[C@@H]([NH2+]c1cccnc1)c1cccc(Cl)c1

>  <enum_code>  (1194) 
M

>  <parent_uuid>  (1194) 
85d0fcce-c5b2-415e-8993-f2f147ae328b

>  <o3da_score>  (1194) 
72.015955409491852

>  <o3da_score_rel>  (1194) 
0.28670598210671006

>  <o3da_align>  (1194) 
0.50068955230016521

>  <RMSD>  (1194) 
6.6076796250262186e-05

>  <CONVERGED>  (1194) 
0

>  <ENERGY>  (1194) 
49.816646028849433

$$$$
575b8d2f-87b1-4bf5-abcb-17fc39772077
     RDKit          3D

 16 17  0  0  0  0  0  0  0  0999 V2000
   -4.0162   30.2938    5.4710 C   0  0  0  0  0  0  0  0  0  0  0  0
   -3.5770   29.0095    4.7628 C   0  0  1  0  0  0  0  0  0  0  0  0
   -4.6149   27.9560    5.0493 N   0  0  0  0  0  4  0  0  0  0  0  0
   -4.1511   26.5991    4.7579 C   0  0  0  0  0  0  0  0  0  0  0  0
   -3.4628   25.8779    5.7305 C   0  0  0  0  0  0  0  0  0  0  0  0
   -3.0452   24.5786    5.4403 C   0  0  0  0  0  0  0  0  0  0  0  0
   -3.3390   24.0497    4.1925 C   0  0  0  0  0  0  0  0  0  0  0  0
   -4.0126   24.7301    3.2384 N   0  0  0  0  0  0  0  0  0  0  0  0
   -4.4062   25.9864    3.5346 C   0  0  0  0  0  0  0  0  0  0  0  0
   -3.3557   29.2063    3.2767 C   0  0  0  0  0  0  0  0  0  0  0  0
   -4.3164   29.8166    2.4510 C   0  0  0  0  0  0  0  0  0  0  0  0
   -4.0951   29.9478    1.0771 C   0  0  0  0  0  0  0  0  0  0  0  0
   -2.9169   29.4694    0.5065 C   0  0  0  0  0  0  0  0  0  0  0  0
   -1.9594   28.8629    1.3117 C   0  0  0  0  0  0  0  0  0  0  0  0
   -0.5055   28.2660    0.6170 Cl  0  0  0  0  0  0  0  0  0  0  0  0
   -2.1719   28.7291    2.6852 C   0  0  0  0  0  0  0  0  0  0  0  0
  2  1  1  6
  2  3  1  0
  3  4  1  0
  4  5  2  0
  5  6  1  0
  6  7  2  0
  7  8  1  0
  8  9  2  0
  2 10  1  0
 10 11  2  0
 11 12  1  0
 12 13  2  0
 13 14  1  0
 14 15  1  0
 14 16  2  0
  9  4  1  0
 16 10  1  0
M  CHG  1   3   1
M  END
>  <Energy>  (1195) 
49.988446688292669

>  <Energy_Delta>  (1195) 
0.35248379599749313

>  <std_smi>  (1195) 
CC(Nc1cccnc1)c1cccc(Cl)c1

>  <enum_smi>  (1195) 
C[C@@H]([NH2+]c1cccnc1)c1cccc(Cl)c1

>  <enum_code>  (1195) 
M

>  <parent_uuid>  (1195) 
85d0fcce-c5b2-415e-8993-f2f147ae328b

>  <o3da_score>  (1195) 
70.088226421130798

>  <o3da_score_rel>  (1195) 
0.2790314129129674

>  <o3da_align>  (1195) 
0.51939450983075031

>  <RMSD>  (1195) 
6.8006575015604643e-05

>  <CONVERGED>  (1195) 
0

>  <ENERGY>  (1195) 
49.98844665466617

$$$$
575b8d2f-87b1-4bf5-abcb-17fc39772077
     RDKit          3D

 16 17  0  0  0  0  0  0  0  0999 V2000
   -4.2122   31.5019    3.8043 C   0  0  0  0  0  0  0  0  0  0  0  0
   -3.4580   30.1734    3.7153 C   0  0  1  0  0  0  0  0  0  0  0  0
   -1.9774   30.4032    3.8370 N   0  0  0  0  0  4  0  0  0  0  0  0
   -1.3699   31.0186    2.6618 C   0  0  0  0  0  0  0  0  0  0  0  0
   -1.0444   32.3720    2.6711 C   0  0  0  0  0  0  0  0  0  0  0  0
   -0.4474   32.9316    1.5407 C   0  0  0  0  0  0  0  0  0  0  0  0
   -0.1941   32.1141    0.4495 C   0  0  0  0  0  0  0  0  0  0  0  0
   -0.4942   30.7960    0.4243 N   0  0  0  0  0  0  0  0  0  0  0  0
   -1.0676   30.2719    1.5269 C   0  0  0  0  0  0  0  0  0  0  0  0
   -3.8937   29.1802    4.7763 C   0  0  0  0  0  0  0  0  0  0  0  0
   -4.2152   27.8622    4.4075 C   0  0  0  0  0  0  0  0  0  0  0  0
   -4.5847   26.9202    5.3715 C   0  0  0  0  0  0  0  0  0  0  0  0
   -4.6327   27.2765    6.7178 C   0  0  0  0  0  0  0  0  0  0  0  0
   -4.3129   28.5756    7.0963 C   0  0  0  0  0  0  0  0  0  0  0  0
   -4.3590   29.0237    8.7549 Cl  0  0  0  0  0  0  0  0  0  0  0  0
   -3.9434   29.5242    6.1390 C   0  0  0  0  0  0  0  0  0  0  0  0
  2  1  1  1
  2  3  1  0
  3  4  1  0
  4  5  2  0
  5  6  1  0
  6  7  2  0
  7  8  1  0
  8  9  2  0
  2 10  1  0
 10 11  2  0
 11 12  1  0
 12 13  2  0
 13 14  1  0
 14 15  1  0
 14 16  2  0
  9  4  1  0
 16 10  1  0
M  CHG  1   3   1
M  END
>  <Energy>  (1196) 
50.26531833627017

>  <Energy_Delta>  (1196) 
0.62935544397499399

>  <std_smi>  (1196) 
CC(Nc1cccnc1)c1cccc(Cl)c1

>  <enum_smi>  (1196) 
C[C@@H]([NH2+]c1cccnc1)c1cccc(Cl)c1

>  <enum_code>  (1196) 
M

>  <parent_uuid>  (1196) 
85d0fcce-c5b2-415e-8993-f2f147ae328b

>  <o3da_score>  (1196) 
77.947368313715046

>  <o3da_score_rel>  (1196) 
0.31031979868827253

>  <o3da_align>  (1196) 
0.44786149329853214

>  <RMSD>  (1196) 
6.4798117083542215e-05

>  <CONVERGED>  (1196) 
0

>  <ENERGY>  (1196) 
50.265318323220093

$$$$
575b8d2f-87b1-4bf5-abcb-17fc39772077
     RDKit          3D

 16 17  0  0  0  0  0  0  0  0999 V2000
   -4.1248   31.5662    3.8645 C   0  0  0  0  0  0  0  0  0  0  0  0
   -3.4608   30.1999    3.6788 C   0  0  1  0  0  0  0  0  0  0  0  0
   -1.9665   30.3271    3.7795 N   0  0  0  0  0  4  0  0  0  0  0  0
   -1.3437   30.9858    2.6364 C   0  0  0  0  0  0  0  0  0  0  0  0
   -0.9287   32.3109    2.7345 C   0  0  0  0  0  0  0  0  0  0  0  0
   -0.3188   32.9119    1.6326 C   0  0  0  0  0  0  0  0  0  0  0  0
   -0.1425   32.1617    0.4796 C   0  0  0  0  0  0  0  0  0  0  0  0
   -0.5300   30.8713    0.3677 N   0  0  0  0  0  0  0  0  0  0  0  0
   -1.1148   30.3060    1.4436 C   0  0  0  0  0  0  0  0  0  0  0  0
   -3.9341   29.1670    4.6848 C   0  0  0  0  0  0  0  0  0  0  0  0
   -4.0185   29.4446    6.0604 C   0  0  0  0  0  0  0  0  0  0  0  0
   -4.4202   28.4565    6.9640 C   0  0  0  0  0  0  0  0  0  0  0  0
   -4.7352   27.1765    6.5113 C   0  0  0  0  0  0  0  0  0  0  0  0
   -4.6494   26.8871    5.1542 C   0  0  0  0  0  0  0  0  0  0  0  0
   -5.0259   25.3095    4.5867 Cl  0  0  0  0  0  0  0  0  0  0  0  0
   -4.2500   27.8688    4.2444 C   0  0  0  0  0  0  0  0  0  0  0  0
  2  1  1  1
  2  3  1  0
  3  4  1  0
  4  5  2  0
  5  6  1  0
  6  7  2  0
  7  8  1  0
  8  9  2  0
  2 10  1  0
 10 11  2  0
 11 12  1  0
 12 13  2  0
 13 14  1  0
 14 15  1  0
 14 16  2  0
  9  4  1  0
 16 10  1  0
M  CHG  1   3   1
M  END
>  <Energy>  (1197) 
50.472878916911796

>  <Energy_Delta>  (1197) 
0.83691602461662029

>  <std_smi>  (1197) 
CC(Nc1cccnc1)c1cccc(Cl)c1

>  <enum_smi>  (1197) 
C[C@@H]([NH2+]c1cccnc1)c1cccc(Cl)c1

>  <enum_code>  (1197) 
M

>  <parent_uuid>  (1197) 
85d0fcce-c5b2-415e-8993-f2f147ae328b

>  <o3da_score>  (1197) 
85.083980411998596

>  <o3da_score_rel>  (1197) 
0.33873168837186524

>  <o3da_align>  (1197) 
0.46381064249868614

>  <RMSD>  (1197) 
6.3243421197164024e-05

>  <CONVERGED>  (1197) 
0

>  <ENERGY>  (1197) 
50.472878912830012

$$$$
575b8d2f-87b1-4bf5-abcb-17fc39772077
     RDKit          3D

 16 17  0  0  0  0  0  0  0  0999 V2000
   -2.0082   29.2408    4.4951 C   0  0  0  0  0  0  0  0  0  0  0  0
   -2.8791   28.4112    3.5492 C   0  0  1  0  0  0  0  0  0  0  0  0
   -2.1341   28.1098    2.2792 N   0  0  0  0  0  4  0  0  0  0  0  0
   -1.9892   29.2542    1.3857 C   0  0  0  0  0  0  0  0  0  0  0  0
   -3.0261   29.5992    0.5224 C   0  0  0  0  0  0  0  0  0  0  0  0
   -2.8575   30.6842   -0.3384 C   0  0  0  0  0  0  0  0  0  0  0  0
   -1.6564   31.3766   -0.3063 C   0  0  0  0  0  0  0  0  0  0  0  0
   -0.6349   31.0520    0.5177 N   0  0  0  0  0  0  0  0  0  0  0  0
   -0.8147   29.9985    1.3410 C   0  0  0  0  0  0  0  0  0  0  0  0
   -3.3418   27.1077    4.1732 C   0  0  0  0  0  0  0  0  0  0  0  0
   -4.7002   26.7501    4.1147 C   0  0  0  0  0  0  0  0  0  0  0  0
   -5.1440   25.5385    4.6513 C   0  0  0  0  0  0  0  0  0  0  0  0
   -4.2393   24.6628    5.2482 C   0  0  0  0  0  0  0  0  0  0  0  0
   -2.8924   25.0025    5.3088 C   0  0  0  0  0  0  0  0  0  0  0  0
   -1.7662   23.9255    6.0339 Cl  0  0  0  0  0  0  0  0  0  0  0  0
   -2.4400   26.2124    4.7758 C   0  0  0  0  0  0  0  0  0  0  0  0
  2  1  1  1
  2  3  1  0
  3  4  1  0
  4  5  2  0
  5  6  1  0
  6  7  2  0
  7  8  1  0
  8  9  2  0
  2 10  1  0
 10 11  2  0
 11 12  1  0
 12 13  2  0
 13 14  1  0
 14 15  1  0
 14 16  2  0
  9  4  1  0
 16 10  1  0
M  CHG  1   3   1
M  END
>  <Energy>  (1198) 
50.474750847112176

>  <Energy_Delta>  (1198) 
0.83878795481700053

>  <std_smi>  (1198) 
CC(Nc1cccnc1)c1cccc(Cl)c1

>  <enum_smi>  (1198) 
C[C@@H]([NH2+]c1cccnc1)c1cccc(Cl)c1

>  <enum_code>  (1198) 
M

>  <parent_uuid>  (1198) 
85d0fcce-c5b2-415e-8993-f2f147ae328b

>  <o3da_score>  (1198) 
62.085401250646974

>  <o3da_score_rel>  (1198) 
0.24717100313175591

>  <o3da_align>  (1198) 
0.56533535390685574

>  <RMSD>  (1198) 
6.4803380302255639e-05

>  <CONVERGED>  (1198) 
0

>  <ENERGY>  (1198) 
50.474750847227938

$$$$
575b8d2f-87b1-4bf5-abcb-17fc39772077
     RDKit          3D

 16 17  0  0  0  0  0  0  0  0999 V2000
   -2.4982   28.1906    6.2095 C   0  0  0  0  0  0  0  0  0  0  0  0
   -2.8935   28.1470    4.7319 C   0  0  1  0  0  0  0  0  0  0  0  0
   -4.3783   27.9613    4.5925 N   0  0  0  0  0  4  0  0  0  0  0  0
   -4.8470   26.6200    4.9234 C   0  0  0  0  0  0  0  0  0  0  0  0
   -4.7746   25.6033    3.9745 C   0  0  0  0  0  0  0  0  0  0  0  0
   -5.2483   24.3334    4.3059 C   0  0  0  0  0  0  0  0  0  0  0  0
   -5.7816   24.1328    5.5702 C   0  0  0  0  0  0  0  0  0  0  0  0
   -5.8689   25.1087    6.5019 N   0  0  0  0  0  0  0  0  0  0  0  0
   -5.4083   26.3306    6.1630 C   0  0  0  0  0  0  0  0  0  0  0  0
   -2.4818   29.3925    3.9687 C   0  0  0  0  0  0  0  0  0  0  0  0
   -2.7136   30.6871    4.4652 C   0  0  0  0  0  0  0  0  0  0  0  0
   -2.3579   31.8124    3.7159 C   0  0  0  0  0  0  0  0  0  0  0  0
   -1.7750   31.6642    2.4586 C   0  0  0  0  0  0  0  0  0  0  0  0
   -1.5468   30.3894    1.9531 C   0  0  0  0  0  0  0  0  0  0  0  0
   -0.8386   30.1946    0.3996 Cl  0  0  0  0  0  0  0  0  0  0  0  0
   -1.8977   29.2596    2.6958 C   0  0  0  0  0  0  0  0  0  0  0  0
  2  1  1  1
  2  3  1  0
  3  4  1  0
  4  5  2  0
  5  6  1  0
  6  7  2  0
  7  8  1  0
  8  9  2  0
  2 10  1  0
 10 11  2  0
 11 12  1  0
 12 13  2  0
 13 14  1  0
 14 15  1  0
 14 16  2  0
  9  4  1  0
 16 10  1  0
M  CHG  1   3   1
M  END
>  <Energy>  (1199) 
50.509379533132567

>  <Energy_Delta>  (1199) 
0.8734166408373909

>  <std_smi>  (1199) 
CC(Nc1cccnc1)c1cccc(Cl)c1

>  <enum_smi>  (1199) 
C[C@@H]([NH2+]c1cccnc1)c1cccc(Cl)c1

>  <enum_code>  (1199) 
M

>  <parent_uuid>  (1199) 
85d0fcce-c5b2-415e-8993-f2f147ae328b

>  <o3da_score>  (1199) 
64.443603335704168

>  <o3da_score_rel>  (1199) 
0.25655934826941273

>  <o3da_align>  (1199) 
0.63072050513985245

>  <RMSD>  (1199) 
6.6974830116575007e-05

>  <CONVERGED>  (1199) 
0

>  <ENERGY>  (1199) 
50.509379527441148

$$$$
575b8d2f-87b1-4bf5-abcb-17fc39772077
     RDKit          3D

 16 17  0  0  0  0  0  0  0  0999 V2000
   -3.8911   27.8650    7.2878 C   0  0  0  0  0  0  0  0  0  0  0  0
   -4.6858   27.3800    6.0727 C   0  0  1  0  0  0  0  0  0  0  0  0
   -4.8754   28.4955    5.0771 N   0  0  0  0  0  4  0  0  0  0  0  0
   -3.6527   29.0061    4.4552 C   0  0  0  0  0  0  0  0  0  0  0  0
   -3.0365   30.1457    4.9678 C   0  0  0  0  0  0  0  0  0  0  0  0
   -1.8945   30.6427    4.3383 C   0  0  0  0  0  0  0  0  0  0  0  0
   -1.4196   29.9886    3.2122 C   0  0  0  0  0  0  0  0  0  0  0  0
   -2.0103   28.8919    2.6883 N   0  0  0  0  0  0  0  0  0  0  0  0
   -3.1141   28.4255    3.3101 C   0  0  0  0  0  0  0  0  0  0  0  0
   -4.2106   26.0913    5.4319 C   0  0  0  0  0  0  0  0  0  0  0  0
   -2.8620   25.6975    5.4262 C   0  0  0  0  0  0  0  0  0  0  0  0
   -2.4633   24.5191    4.7876 C   0  0  0  0  0  0  0  0  0  0  0  0
   -3.4017   23.7153    4.1438 C   0  0  0  0  0  0  0  0  0  0  0  0
   -4.7394   24.0910    4.1420 C   0  0  0  0  0  0  0  0  0  0  0  0
   -5.9071   23.1137    3.3456 Cl  0  0  0  0  0  0  0  0  0  0  0  0
   -5.1459   25.2671    4.7768 C   0  0  0  0  0  0  0  0  0  0  0  0
  2  1  1  1
  2  3  1  0
  3  4  1  0
  4  5  2  0
  5  6  1  0
  6  7  2  0
  7  8  1  0
  8  9  2  0
  2 10  1  0
 10 11  2  0
 11 12  1  0
 12 13  2  0
 13 14  1  0
 14 15  1  0
 14 16  2  0
  9  4  1  0
 16 10  1  0
M  CHG  1   3   1
M  END
>  <Energy>  (1200) 
52.014759406200277

>  <Energy_Delta>  (1200) 
2.3787965139051011

>  <std_smi>  (1200) 
CC(Nc1cccnc1)c1cccc(Cl)c1

>  <enum_smi>  (1200) 
C[C@@H]([NH2+]c1cccnc1)c1cccc(Cl)c1

>  <enum_code>  (1200) 
M

>  <parent_uuid>  (1200) 
85d0fcce-c5b2-415e-8993-f2f147ae328b

>  <o3da_score>  (1200) 
75.796948336937646

>  <o3da_score_rel>  (1200) 
0.30175866431356158

>  <o3da_align>  (1200) 
0.63360400188295263

>  <RMSD>  (1200) 
6.8419070660344854e-05

>  <CONVERGED>  (1200) 
0

>  <ENERGY>  (1200) 
52.014759388515976

$$$$
575b8d2f-87b1-4bf5-abcb-17fc39772077
     RDKit          3D

 16 17  0  0  0  0  0  0  0  0999 V2000
   -4.3058   28.8491    6.3271 C   0  0  0  0  0  0  0  0  0  0  0  0
   -4.7838   28.1598    5.0468 C   0  0  1  0  0  0  0  0  0  0  0  0
   -4.4863   29.0084    3.8371 N   0  0  0  0  0  4  0  0  0  0  0  0
   -3.0686   29.1875    3.5196 C   0  0  0  0  0  0  0  0  0  0  0  0
   -2.4247   28.3015    2.6589 C   0  0  0  0  0  0  0  0  0  0  0  0
   -1.0798   28.5095    2.3509 C   0  0  0  0  0  0  0  0  0  0  0  0
   -0.4348   29.6059    2.9019 C   0  0  0  0  0  0  0  0  0  0  0  0
   -1.0454   30.4907    3.7218 N   0  0  0  0  0  0  0  0  0  0  0  0
   -2.3453   30.2712    4.0090 C   0  0  0  0  0  0  0  0  0  0  0  0
   -4.3666   26.7127    4.8740 C   0  0  0  0  0  0  0  0  0  0  0  0
   -5.2234   25.8233    4.1982 C   0  0  0  0  0  0  0  0  0  0  0  0
   -4.8539   24.4922    3.9871 C   0  0  0  0  0  0  0  0  0  0  0  0
   -3.6210   24.0281    4.4401 C   0  0  0  0  0  0  0  0  0  0  0  0
   -2.7631   24.8957    5.1069 C   0  0  0  0  0  0  0  0  0  0  0  0
   -1.2326   24.3361    5.6531 Cl  0  0  0  0  0  0  0  0  0  0  0  0
   -3.1275   26.2267    5.3264 C   0  0  0  0  0  0  0  0  0  0  0  0
  2  1  1  1
  2  3  1  0
  3  4  1  0
  4  5  2  0
  5  6  1  0
  6  7  2  0
  7  8  1  0
  8  9  2  0
  2 10  1  0
 10 11  2  0
 11 12  1  0
 12 13  2  0
 13 14  1  0
 14 15  1  0
 14 16  2  0
  9  4  1  0
 16 10  1  0
M  CHG  1   3   1
M  END
>  <Energy>  (1201) 
52.040378445959348

>  <Energy_Delta>  (1201) 
2.4044155536641725

>  <std_smi>  (1201) 
CC(Nc1cccnc1)c1cccc(Cl)c1

>  <enum_smi>  (1201) 
C[C@@H]([NH2+]c1cccnc1)c1cccc(Cl)c1

>  <enum_code>  (1201) 
M

>  <parent_uuid>  (1201) 
85d0fcce-c5b2-415e-8993-f2f147ae328b

>  <o3da_score>  (1201) 
71.882043593841246

>  <o3da_score_rel>  (1201) 
0.28617285971177003

>  <o3da_align>  (1201) 
0.30157879159716222

>  <RMSD>  (1201) 
6.0954077333515052e-05

>  <CONVERGED>  (1201) 
0

>  <ENERGY>  (1201) 
52.040378425882089

$$$$
faca3595-c7f6-47e8-9212-cd9974377253
     RDKit          3D

 16 17  0  0  0  0  0  0  0  0999 V2000
   -5.6144   28.1853    6.2999 C   0  0  0  0  0  0  0  0  0  0  0  0
   -4.8968   28.0887    4.9524 C   0  0  1  0  0  0  0  0  0  0  0  0
   -3.9059   29.1701    4.8587 N   0  0  0  0  0  0  0  0  0  0  0  0
   -3.1369   29.4345    3.7338 C   0  0  0  0  0  0  0  0  0  0  0  0
   -2.0826   30.3494    3.8448 C   0  0  0  0  0  0  0  0  0  0  0  0
   -1.3042   30.6926    2.7408 C   0  0  0  0  0  0  0  0  0  0  0  0
   -1.6038   30.1276    1.5132 C   0  0  0  0  0  0  0  0  0  0  0  0
   -2.6354   29.2783    1.4082 N   0  0  0  0  0  4  0  0  0  0  0  0
   -3.4015   28.9355    2.4574 C   0  0  0  0  0  0  0  0  0  0  0  0
   -4.2667   26.7163    4.7816 C   0  0  0  0  0  0  0  0  0  0  0  0
   -4.9477   25.7258    4.0522 C   0  0  0  0  0  0  0  0  0  0  0  0
   -4.3943   24.4542    3.8829 C   0  0  0  0  0  0  0  0  0  0  0  0
   -3.1542   24.1518    4.4427 C   0  0  0  0  0  0  0  0  0  0  0  0
   -2.4771   25.1188    5.1799 C   0  0  0  0  0  0  0  0  0  0  0  0
   -0.9447   24.7535    5.8689 Cl  0  0  0  0  0  0  0  0  0  0  0  0
   -3.0277   26.3886    5.3586 C   0  0  0  0  0  0  0  0  0  0  0  0
  2  1  1  1
  2  3  1  0
  3  4  1  0
  4  5  2  0
  5  6  1  0
  6  7  2  0
  7  8  1  0
  8  9  2  0
  2 10  1  0
 10 11  2  0
 11 12  1  0
 12 13  2  0
 13 14  1  0
 14 15  1  0
 14 16  2  0
  9  4  1  0
 16 10  1  0
M  CHG  1   8   1
M  END
>  <Energy>  (1202) 
71.209612434173238

>  <Energy_Delta>  (1202) 
0

>  <std_smi>  (1202) 
CC(Nc1cccnc1)c1cccc(Cl)c1

>  <enum_smi>  (1202) 
C[C@@H](Nc1ccc[nH+]c1)c1cccc(Cl)c1

>  <enum_code>  (1202) 
M

>  <parent_uuid>  (1202) 
85d0fcce-c5b2-415e-8993-f2f147ae328b

>  <o3da_score>  (1202) 
82.130059103009771

>  <o3da_score_rel>  (1202) 
0.32697169844818846

>  <o3da_align>  (1202) 
0.49696397132865117

>  <RMSD>  (1202) 
7.1171839526067642e-05

>  <CONVERGED>  (1202) 
0

>  <ENERGY>  (1202) 
71.209612241024644

$$$$
faca3595-c7f6-47e8-9212-cd9974377253
     RDKit          3D

 16 17  0  0  0  0  0  0  0  0999 V2000
   -4.4088   30.3257    5.0285 C   0  0  0  0  0  0  0  0  0  0  0  0
   -3.6331   29.0094    4.9474 C   0  0  1  0  0  0  0  0  0  0  0  0
   -4.5775   27.9083    4.7097 N   0  0  0  0  0  0  0  0  0  0  0  0
   -4.2194   26.5658    4.7020 C   0  0  0  0  0  0  0  0  0  0  0  0
   -5.1422   25.6309    4.2165 C   0  0  0  0  0  0  0  0  0  0  0  0
   -4.8643   24.2650    4.2328 C   0  0  0  0  0  0  0  0  0  0  0  0
   -3.6595   23.8367    4.7628 C   0  0  0  0  0  0  0  0  0  0  0  0
   -2.7962   24.7347    5.2573 N   0  0  0  0  0  4  0  0  0  0  0  0
   -3.0440   26.0552    5.2554 C   0  0  0  0  0  0  0  0  0  0  0  0
   -2.5681   29.0722    3.8657 C   0  0  0  0  0  0  0  0  0  0  0  0
   -2.8955   29.0591    2.4989 C   0  0  0  0  0  0  0  0  0  0  0  0
   -1.8967   29.1130    1.5234 C   0  0  0  0  0  0  0  0  0  0  0  0
   -0.5560   29.1828    1.8980 C   0  0  0  0  0  0  0  0  0  0  0  0
   -0.2200   29.2085    3.2480 C   0  0  0  0  0  0  0  0  0  0  0  0
    1.4317   29.2824    3.7201 Cl  0  0  0  0  0  0  0  0  0  0  0  0
   -1.2132   29.1617    4.2278 C   0  0  0  0  0  0  0  0  0  0  0  0
  2  1  1  6
  2  3  1  0
  3  4  1  0
  4  5  2  0
  5  6  1  0
  6  7  2  0
  7  8  1  0
  8  9  2  0
  2 10  1  0
 10 11  2  0
 11 12  1  0
 12 13  2  0
 13 14  1  0
 14 15  1  0
 14 16  2  0
  9  4  1  0
 16 10  1  0
M  CHG  1   8   1
M  END
>  <Energy>  (1203) 
71.248450485869967

>  <Energy_Delta>  (1203) 
0.038838051696728826

>  <std_smi>  (1203) 
CC(Nc1cccnc1)c1cccc(Cl)c1

>  <enum_smi>  (1203) 
C[C@@H](Nc1ccc[nH+]c1)c1cccc(Cl)c1

>  <enum_code>  (1203) 
M

>  <parent_uuid>  (1203) 
85d0fcce-c5b2-415e-8993-f2f147ae328b

>  <o3da_score>  (1203) 
78.792726711860283

>  <o3da_score_rel>  (1203) 
0.31368529329838002

>  <o3da_align>  (1203) 
0.35230477739559457

>  <RMSD>  (1203) 
6.1920017782309306e-05

>  <CONVERGED>  (1203) 
0

>  <ENERGY>  (1203) 
71.248450473137368

$$$$
faca3595-c7f6-47e8-9212-cd9974377253
     RDKit          3D

 16 17  0  0  0  0  0  0  0  0999 V2000
   -5.4347   28.1863    6.5351 C   0  0  0  0  0  0  0  0  0  0  0  0
   -4.8455   28.1331    5.1225 C   0  0  1  0  0  0  0  0  0  0  0  0
   -3.7710   29.1370    5.0191 N   0  0  0  0  0  0  0  0  0  0  0  0
   -3.1724   29.4828    3.8110 C   0  0  0  0  0  0  0  0  0  0  0  0
   -3.7495   29.2413    2.5610 C   0  0  0  0  0  0  0  0  0  0  0  0
   -3.1334   29.6721    1.3851 C   0  0  0  0  0  0  0  0  0  0  0  0
   -1.9445   30.3756    1.4701 C   0  0  0  0  0  0  0  0  0  0  0  0
   -1.4162   30.6377    2.6730 N   0  0  0  0  0  4  0  0  0  0  0  0
   -1.9904   30.2316    3.8166 C   0  0  0  0  0  0  0  0  0  0  0  0
   -4.3284   26.7388    4.8085 C   0  0  0  0  0  0  0  0  0  0  0  0
   -5.0243   25.9242    3.8989 C   0  0  0  0  0  0  0  0  0  0  0  0
   -4.5678   24.6394    3.5933 C   0  0  0  0  0  0  0  0  0  0  0  0
   -3.4097   24.1480    4.1929 C   0  0  0  0  0  0  0  0  0  0  0  0
   -2.7172   24.9409    5.1029 C   0  0  0  0  0  0  0  0  0  0  0  0
   -1.2832   24.3452    5.8428 Cl  0  0  0  0  0  0  0  0  0  0  0  0
   -3.1716   26.2224    5.4176 C   0  0  0  0  0  0  0  0  0  0  0  0
  2  1  1  1
  2  3  1  0
  3  4  1  0
  4  5  2  0
  5  6  1  0
  6  7  2  0
  7  8  1  0
  8  9  2  0
  2 10  1  0
 10 11  2  0
 11 12  1  0
 12 13  2  0
 13 14  1  0
 14 15  1  0
 14 16  2  0
  9  4  1  0
 16 10  1  0
M  CHG  1   8   1
M  END
>  <Energy>  (1204) 
72.959958084279378

>  <Energy_Delta>  (1204) 
1.7503456501061407

>  <std_smi>  (1204) 
CC(Nc1cccnc1)c1cccc(Cl)c1

>  <enum_smi>  (1204) 
C[C@@H](Nc1ccc[nH+]c1)c1cccc(Cl)c1

>  <enum_code>  (1204) 
M

>  <parent_uuid>  (1204) 
85d0fcce-c5b2-415e-8993-f2f147ae328b

>  <o3da_score>  (1204) 
80.936795710444471

>  <o3da_score_rel>  (1204) 
0.32222114350613285

>  <o3da_align>  (1204) 
0.47437671310702262

>  <RMSD>  (1204) 
7.4999982378598721e-05

>  <CONVERGED>  (1204) 
0

>  <ENERGY>  (1204) 
72.959957985186989

$$$$
faca3595-c7f6-47e8-9212-cd9974377253
     RDKit          3D

 16 17  0  0  0  0  0  0  0  0999 V2000
   -4.3803   30.2714    5.4243 C   0  0  0  0  0  0  0  0  0  0  0  0
   -3.6557   29.0108    4.9397 C   0  0  1  0  0  0  0  0  0  0  0  0
   -4.6341   27.9118    4.8462 N   0  0  0  0  0  0  0  0  0  0  0  0
   -4.2479   26.5749    4.7598 C   0  0  0  0  0  0  0  0  0  0  0  0
   -3.0350   26.0837    5.2516 C   0  0  0  0  0  0  0  0  0  0  0  0
   -2.7319   24.7223    5.2001 C   0  0  0  0  0  0  0  0  0  0  0  0
   -3.6686   23.8461    4.6803 C   0  0  0  0  0  0  0  0  0  0  0  0
   -4.8468   24.3174    4.2506 N   0  0  0  0  0  4  0  0  0  0  0  0
   -5.1586   25.6227    4.2886 C   0  0  0  0  0  0  0  0  0  0  0  0
   -2.9838   29.2192    3.5918 C   0  0  0  0  0  0  0  0  0  0  0  0
   -3.6925   29.6801    2.4681 C   0  0  0  0  0  0  0  0  0  0  0  0
   -3.0541   29.8430    1.2355 C   0  0  0  0  0  0  0  0  0  0  0  0
   -1.7001   29.5412    1.1037 C   0  0  0  0  0  0  0  0  0  0  0  0
   -0.9878   29.0822    2.2072 C   0  0  0  0  0  0  0  0  0  0  0  0
    0.6802   28.6935    2.0497 Cl  0  0  0  0  0  0  0  0  0  0  0  0
   -1.6178   28.9246    3.4427 C   0  0  0  0  0  0  0  0  0  0  0  0
  2  1  1  6
  2  3  1  0
  3  4  1  0
  4  5  2  0
  5  6  1  0
  6  7  2  0
  7  8  1  0
  8  9  2  0
  2 10  1  0
 10 11  2  0
 11 12  1  0
 12 13  2  0
 13 14  1  0
 14 15  1  0
 14 16  2  0
  9  4  1  0
 16 10  1  0
M  CHG  1   8   1
M  END
>  <Energy>  (1205) 
73.227843562110223

>  <Energy_Delta>  (1205) 
2.0182311279369856

>  <std_smi>  (1205) 
CC(Nc1cccnc1)c1cccc(Cl)c1

>  <enum_smi>  (1205) 
C[C@@H](Nc1ccc[nH+]c1)c1cccc(Cl)c1

>  <enum_code>  (1205) 
M

>  <parent_uuid>  (1205) 
85d0fcce-c5b2-415e-8993-f2f147ae328b

>  <o3da_score>  (1205) 
74.850304148747583

>  <o3da_score_rel>  (1205) 
0.29798993625687775

>  <o3da_align>  (1205) 
0.21761627490902147

>  <RMSD>  (1205) 
6.9143032185965033e-05

>  <CONVERGED>  (1205) 
0

>  <ENERGY>  (1205) 
73.227843555957421

$$$$
faca3595-c7f6-47e8-9212-cd9974377253
     RDKit          3D

 16 17  0  0  0  0  0  0  0  0999 V2000
   -2.8947   29.3033    3.7355 C   0  0  0  0  0  0  0  0  0  0  0  0
   -3.7399   29.0829    4.9940 C   0  0  1  0  0  0  0  0  0  0  0  0
   -4.6072   27.9054    4.8047 N   0  0  0  0  0  0  0  0  0  0  0  0
   -4.2197   26.5788    4.7056 C   0  0  0  0  0  0  0  0  0  0  0  0
   -5.1877   25.6335    4.3387 C   0  0  0  0  0  0  0  0  0  0  0  0
   -4.8972   24.2705    4.3024 C   0  0  0  0  0  0  0  0  0  0  0  0
   -3.6287   23.8519    4.6624 C   0  0  0  0  0  0  0  0  0  0  0  0
   -2.7148   24.7572    5.0367 N   0  0  0  0  0  4  0  0  0  0  0  0
   -2.9715   26.0756    5.0735 C   0  0  0  0  0  0  0  0  0  0  0  0
   -3.0003   29.0405    6.3247 C   0  0  0  0  0  0  0  0  0  0  0  0
   -1.6497   29.4053    6.4574 C   0  0  0  0  0  0  0  0  0  0  0  0
   -1.0122   29.3642    7.7020 C   0  0  0  0  0  0  0  0  0  0  0  0
   -1.7141   28.9657    8.8377 C   0  0  0  0  0  0  0  0  0  0  0  0
   -3.0568   28.6215    8.7284 C   0  0  0  0  0  0  0  0  0  0  0  0
   -3.9297   28.1212   10.1223 Cl  0  0  0  0  0  0  0  0  0  0  0  0
   -3.6987   28.6677    7.4906 C   0  0  0  0  0  0  0  0  0  0  0  0
  2  1  1  6
  2  3  1  0
  3  4  1  0
  4  5  2  0
  5  6  1  0
  6  7  2  0
  7  8  1  0
  8  9  2  0
  2 10  1  0
 10 11  2  0
 11 12  1  0
 12 13  2  0
 13 14  1  0
 14 15  1  0
 14 16  2  0
  9  4  1  0
 16 10  1  0
M  CHG  1   8   1
M  END
>  <Energy>  (1206) 
73.482642363270315

>  <Energy_Delta>  (1206) 
2.2730299290970777

>  <std_smi>  (1206) 
CC(Nc1cccnc1)c1cccc(Cl)c1

>  <enum_smi>  (1206) 
C[C@@H](Nc1ccc[nH+]c1)c1cccc(Cl)c1

>  <enum_code>  (1206) 
M

>  <parent_uuid>  (1206) 
85d0fcce-c5b2-415e-8993-f2f147ae328b

>  <o3da_score>  (1206) 
69.054720227363418

>  <o3da_score_rel>  (1206) 
0.27491687459138886

>  <o3da_align>  (1206) 
0.17060086658276297

>  <RMSD>  (1206) 
6.3121966078612257e-05

>  <CONVERGED>  (1206) 
0

>  <ENERGY>  (1206) 
73.482642322813987

$$$$
faca3595-c7f6-47e8-9212-cd9974377253
     RDKit          3D

 16 17  0  0  0  0  0  0  0  0999 V2000
   -5.9627   26.0038    6.0271 C   0  0  0  0  0  0  0  0  0  0  0  0
   -4.7592   26.4939    5.2175 C   0  0  1  0  0  0  0  0  0  0  0  0
   -4.6427   25.7149    3.9810 N   0  0  0  0  0  0  0  0  0  0  0  0
   -4.1656   24.4205    3.8842 C   0  0  0  0  0  0  0  0  0  0  0  0
   -4.3304   23.7366    2.6731 C   0  0  0  0  0  0  0  0  0  0  0  0
   -3.8130   22.4558    2.4873 C   0  0  0  0  0  0  0  0  0  0  0  0
   -3.1046   21.8684    3.5207 C   0  0  0  0  0  0  0  0  0  0  0  0
   -2.9265   22.5393    4.6675 N   0  0  0  0  0  4  0  0  0  0  0  0
   -3.4177   23.7740    4.8691 C   0  0  0  0  0  0  0  0  0  0  0  0
   -4.8001   27.9630    4.8246 C   0  0  0  0  0  0  0  0  0  0  0  0
   -5.9741   28.7331    4.8232 C   0  0  0  0  0  0  0  0  0  0  0  0
   -5.9499   30.0771    4.4354 C   0  0  0  0  0  0  0  0  0  0  0  0
   -4.7550   30.6719    4.0345 C   0  0  0  0  0  0  0  0  0  0  0  0
   -3.5863   29.9190    4.0188 C   0  0  0  0  0  0  0  0  0  0  0  0
   -2.1074   30.6384    3.5152 Cl  0  0  0  0  0  0  0  0  0  0  0  0
   -3.6042   28.5787    4.4064 C   0  0  0  0  0  0  0  0  0  0  0  0
  2  1  1  6
  2  3  1  0
  3  4  1  0
  4  5  2  0
  5  6  1  0
  6  7  2  0
  7  8  1  0
  8  9  2  0
  2 10  1  0
 10 11  2  0
 11 12  1  0
 12 13  2  0
 13 14  1  0
 14 15  1  0
 14 16  2  0
  9  4  1  0
 16 10  1  0
M  CHG  1   8   1
M  END
>  <Energy>  (1207) 
73.608578057870616

>  <Energy_Delta>  (1207) 
2.3989656236973786

>  <std_smi>  (1207) 
CC(Nc1cccnc1)c1cccc(Cl)c1

>  <enum_smi>  (1207) 
C[C@@H](Nc1ccc[nH+]c1)c1cccc(Cl)c1

>  <enum_code>  (1207) 
M

>  <parent_uuid>  (1207) 
85d0fcce-c5b2-415e-8993-f2f147ae328b

>  <o3da_score>  (1207) 
69.934108980485917

>  <o3da_score_rel>  (1207) 
0.27841784898913113

>  <o3da_align>  (1207) 
0.5463179047607023

>  <RMSD>  (1207) 
7.0202025720288546e-05

>  <CONVERGED>  (1207) 
0

>  <ENERGY>  (1207) 
73.608578048424448

$$$$
faca3595-c7f6-47e8-9212-cd9974377253
     RDKit          3D

 16 17  0  0  0  0  0  0  0  0999 V2000
   -1.9465   27.8833    6.6942 C   0  0  0  0  0  0  0  0  0  0  0  0
   -3.3147   27.9911    6.0141 C   0  0  1  0  0  0  0  0  0  0  0  0
   -3.3560   29.1970    5.1664 N   0  0  0  0  0  0  0  0  0  0  0  0
   -2.6300   29.4381    4.0107 C   0  0  0  0  0  0  0  0  0  0  0  0
   -2.6559   30.7320    3.4717 C   0  0  0  0  0  0  0  0  0  0  0  0
   -2.0166   31.0332    2.2698 C   0  0  0  0  0  0  0  0  0  0  0  0
   -1.3665   30.0183    1.5907 C   0  0  0  0  0  0  0  0  0  0  0  0
   -1.3685   28.7776    2.0959 N   0  0  0  0  0  4  0  0  0  0  0  0
   -1.9745   28.4665    3.2541 C   0  0  0  0  0  0  0  0  0  0  0  0
   -3.8232   26.7614    5.2752 C   0  0  0  0  0  0  0  0  0  0  0  0
   -5.0506   26.8317    4.5871 C   0  0  0  0  0  0  0  0  0  0  0  0
   -5.5630   25.7271    3.9025 C   0  0  0  0  0  0  0  0  0  0  0  0
   -4.8606   24.5250    3.8969 C   0  0  0  0  0  0  0  0  0  0  0  0
   -3.6553   24.4325    4.5853 C   0  0  0  0  0  0  0  0  0  0  0  0
   -2.7756   22.9545    4.5734 Cl  0  0  0  0  0  0  0  0  0  0  0  0
   -3.1410   25.5332    5.2768 C   0  0  0  0  0  0  0  0  0  0  0  0
  2  1  1  6
  2  3  1  0
  3  4  1  0
  4  5  2  0
  5  6  1  0
  6  7  2  0
  7  8  1  0
  8  9  2  0
  2 10  1  0
 10 11  2  0
 11 12  1  0
 12 13  2  0
 13 14  1  0
 14 15  1  0
 14 16  2  0
  9  4  1  0
 16 10  1  0
M  CHG  1   8   1
M  END
>  <Energy>  (1208) 
73.665077257965535

>  <Energy_Delta>  (1208) 
2.4554648237922976

>  <std_smi>  (1208) 
CC(Nc1cccnc1)c1cccc(Cl)c1

>  <enum_smi>  (1208) 
C[C@@H](Nc1ccc[nH+]c1)c1cccc(Cl)c1

>  <enum_code>  (1208) 
M

>  <parent_uuid>  (1208) 
85d0fcce-c5b2-415e-8993-f2f147ae328b

>  <o3da_score>  (1208) 
71.020843425793956

>  <o3da_score_rel>  (1208) 
0.28274429671393864

>  <o3da_align>  (1208) 
0.56080841576080309

>  <RMSD>  (1208) 
6.2327195067222617e-05

>  <CONVERGED>  (1208) 
0

>  <ENERGY>  (1208) 
73.665077227044435

$$$$
faca3595-c7f6-47e8-9212-cd9974377253
     RDKit          3D

 16 17  0  0  0  0  0  0  0  0999 V2000
   -2.9602   26.3175    5.3503 C   0  0  0  0  0  0  0  0  0  0  0  0
   -4.0220   26.7903    4.3537 C   0  0  1  0  0  0  0  0  0  0  0  0
   -3.3745   27.2608    3.1219 N   0  0  0  0  0  0  0  0  0  0  0  0
   -2.7542   28.4872    2.9641 C   0  0  0  0  0  0  0  0  0  0  0  0
   -2.8322   29.5252    3.8963 C   0  0  0  0  0  0  0  0  0  0  0  0
   -2.2518   30.7693    3.6428 C   0  0  0  0  0  0  0  0  0  0  0  0
   -1.6124   30.9776    2.4327 C   0  0  0  0  0  0  0  0  0  0  0  0
   -1.5677   29.9882    1.5305 N   0  0  0  0  0  4  0  0  0  0  0  0
   -2.1154   28.7833    1.7547 C   0  0  0  0  0  0  0  0  0  0  0  0
   -5.0364   25.7308    3.9428 C   0  0  0  0  0  0  0  0  0  0  0  0
   -4.8365   24.3526    4.1212 C   0  0  0  0  0  0  0  0  0  0  0  0
   -5.8001   23.4285    3.7031 C   0  0  0  0  0  0  0  0  0  0  0  0
   -6.9744   23.8648    3.0922 C   0  0  0  0  0  0  0  0  0  0  0  0
   -7.1822   25.2261    2.8994 C   0  0  0  0  0  0  0  0  0  0  0  0
   -8.6207   25.7753    2.1333 Cl  0  0  0  0  0  0  0  0  0  0  0  0
   -6.2264   26.1523    3.3177 C   0  0  0  0  0  0  0  0  0  0  0  0
  2  1  1  1
  2  3  1  0
  3  4  1  0
  4  5  2  0
  5  6  1  0
  6  7  2  0
  7  8  1  0
  8  9  2  0
  2 10  1  0
 10 11  2  0
 11 12  1  0
 12 13  2  0
 13 14  1  0
 14 15  1  0
 14 16  2  0
  9  4  1  0
 16 10  1  0
M  CHG  1   8   1
M  END
>  <Energy>  (1209) 
73.734436876618346

>  <Energy_Delta>  (1209) 
2.5248244424451087

>  <std_smi>  (1209) 
CC(Nc1cccnc1)c1cccc(Cl)c1

>  <enum_smi>  (1209) 
C[C@@H](Nc1ccc[nH+]c1)c1cccc(Cl)c1

>  <enum_code>  (1209) 
M

>  <parent_uuid>  (1209) 
85d0fcce-c5b2-415e-8993-f2f147ae328b

>  <o3da_score>  (1209) 
74.826604224619885

>  <o3da_score_rel>  (1209) 
0.2978955834154241

>  <o3da_align>  (1209) 
0.36801721215174793

>  <RMSD>  (1209) 
9.5528823664650249e-05

>  <CONVERGED>  (1209) 
0

>  <ENERGY>  (1209) 
73.734436799715795

$$$$
faca3595-c7f6-47e8-9212-cd9974377253
     RDKit          3D

 16 17  0  0  0  0  0  0  0  0999 V2000
   -4.0851   29.1730    6.4947 C   0  0  0  0  0  0  0  0  0  0  0  0
   -3.4869   28.9093    5.1099 C   0  0  1  0  0  0  0  0  0  0  0  0
   -4.2425   27.8604    4.4136 N   0  0  0  0  0  0  0  0  0  0  0  0
   -4.1612   26.5064    4.6893 C   0  0  0  0  0  0  0  0  0  0  0  0
   -3.1821   25.9353    5.5064 C   0  0  0  0  0  0  0  0  0  0  0  0
   -3.1055   24.5528    5.6841 C   0  0  0  0  0  0  0  0  0  0  0  0
   -4.0029   23.7392    5.0138 C   0  0  0  0  0  0  0  0  0  0  0  0
   -4.9188   24.2908    4.2065 N   0  0  0  0  0  4  0  0  0  0  0  0
   -5.0126   25.6174    4.0235 C   0  0  0  0  0  0  0  0  0  0  0  0
   -3.4834   30.1357    4.2080 C   0  0  0  0  0  0  0  0  0  0  0  0
   -2.3988   30.3465    3.3374 C   0  0  0  0  0  0  0  0  0  0  0  0
   -2.3704   31.4461    2.4757 C   0  0  0  0  0  0  0  0  0  0  0  0
   -3.4320   32.3480    2.4604 C   0  0  0  0  0  0  0  0  0  0  0  0
   -4.5190   32.1435    3.3047 C   0  0  0  0  0  0  0  0  0  0  0  0
   -5.8423   33.2426    3.2772 Cl  0  0  0  0  0  0  0  0  0  0  0  0
   -4.5521   31.0477    4.1703 C   0  0  0  0  0  0  0  0  0  0  0  0
  2  1  1  1
  2  3  1  0
  3  4  1  0
  4  5  2  0
  5  6  1  0
  6  7  2  0
  7  8  1  0
  8  9  2  0
  2 10  1  0
 10 11  2  0
 11 12  1  0
 12 13  2  0
 13 14  1  0
 14 15  1  0
 14 16  2  0
  9  4  1  0
 16 10  1  0
M  CHG  1   8   1
M  END
>  <Energy>  (1210) 
73.95976863739827

>  <Energy_Delta>  (1210) 
2.750156203225032

>  <std_smi>  (1210) 
CC(Nc1cccnc1)c1cccc(Cl)c1

>  <enum_smi>  (1210) 
C[C@@H](Nc1ccc[nH+]c1)c1cccc(Cl)c1

>  <enum_code>  (1210) 
M

>  <parent_uuid>  (1210) 
85d0fcce-c5b2-415e-8993-f2f147ae328b

>  <o3da_score>  (1210) 
73.718197933247922

>  <o3da_score_rel>  (1210) 
0.29348285692260623

>  <o3da_align>  (1210) 
0.52836718805508009

>  <RMSD>  (1210) 
0.17591877046453833

>  <CONVERGED>  (1210) 
0

>  <ENERGY>  (1210) 
74.013627331892053

$$$$
faca3595-c7f6-47e8-9212-cd9974377253
     RDKit          3D

 16 17  0  0  0  0  0  0  0  0999 V2000
   -2.4168   28.7635    5.9476 C   0  0  0  0  0  0  0  0  0  0  0  0
   -3.5416   29.1800    4.9955 C   0  0  1  0  0  0  0  0  0  0  0  0
   -2.9975   29.5350    3.6821 N   0  0  0  0  0  0  0  0  0  0  0  0
   -2.2860   30.6847    3.3893 C   0  0  0  0  0  0  0  0  0  0  0  0
   -1.6283   30.7675    2.1555 C   0  0  0  0  0  0  0  0  0  0  0  0
   -0.9480   31.9221    1.7725 C   0  0  0  0  0  0  0  0  0  0  0  0
   -0.9493   33.0095    2.6283 C   0  0  0  0  0  0  0  0  0  0  0  0
   -1.6049   32.9339    3.7951 N   0  0  0  0  0  4  0  0  0  0  0  0
   -2.2664   31.8308    4.1850 C   0  0  0  0  0  0  0  0  0  0  0  0
   -4.5886   28.0982    4.7828 C   0  0  0  0  0  0  0  0  0  0  0  0
   -5.9420   28.4611    4.6601 C   0  0  0  0  0  0  0  0  0  0  0  0
   -6.9289   27.4962    4.4411 C   0  0  0  0  0  0  0  0  0  0  0  0
   -6.5788   26.1525    4.3293 C   0  0  0  0  0  0  0  0  0  0  0  0
   -5.2420   25.7805    4.4314 C   0  0  0  0  0  0  0  0  0  0  0  0
   -4.8006   24.1249    4.2776 Cl  0  0  0  0  0  0  0  0  0  0  0  0
   -4.2511   26.7401    4.6517 C   0  0  0  0  0  0  0  0  0  0  0  0
  2  1  1  1
  2  3  1  0
  3  4  1  0
  4  5  2  0
  5  6  1  0
  6  7  2  0
  7  8  1  0
  8  9  2  0
  2 10  1  0
 10 11  2  0
 11 12  1  0
 12 13  2  0
 13 14  1  0
 14 15  1  0
 14 16  2  0
  9  4  1  0
 16 10  1  0
M  CHG  1   8   1
M  END
>  <Energy>  (1211) 
73.998303715796226

>  <Energy_Delta>  (1211) 
2.7886912816229881

>  <std_smi>  (1211) 
CC(Nc1cccnc1)c1cccc(Cl)c1

>  <enum_smi>  (1211) 
C[C@@H](Nc1ccc[nH+]c1)c1cccc(Cl)c1

>  <enum_code>  (1211) 
M

>  <parent_uuid>  (1211) 
85d0fcce-c5b2-415e-8993-f2f147ae328b

>  <o3da_score>  (1211) 
76.356664427819339

>  <o3da_score_rel>  (1211) 
0.30398697539580283

>  <o3da_align>  (1211) 
0.38219300303145909

>  <RMSD>  (1211) 
7.8432103051726492e-05

>  <CONVERGED>  (1211) 
0

>  <ENERGY>  (1211) 
73.998303644076856

$$$$
faca3595-c7f6-47e8-9212-cd9974377253
     RDKit          3D

 16 17  0  0  0  0  0  0  0  0999 V2000
   -2.8129   29.3084    3.8442 C   0  0  0  0  0  0  0  0  0  0  0  0
   -3.7453   29.0724    5.0362 C   0  0  1  0  0  0  0  0  0  0  0  0
   -4.6147   27.9053    4.7788 N   0  0  0  0  0  0  0  0  0  0  0  0
   -4.2315   26.5748    4.7106 C   0  0  0  0  0  0  0  0  0  0  0  0
   -2.9620   26.0992    5.0465 C   0  0  0  0  0  0  0  0  0  0  0  0
   -2.6723   24.7335    5.0468 C   0  0  0  0  0  0  0  0  0  0  0  0
   -3.6765   23.8361    4.7315 C   0  0  0  0  0  0  0  0  0  0  0  0
   -4.9006   24.2933    4.4373 N   0  0  0  0  0  4  0  0  0  0  0  0
   -5.1981   25.6023    4.4276 C   0  0  0  0  0  0  0  0  0  0  0  0
   -3.1212   29.0315    6.4238 C   0  0  0  0  0  0  0  0  0  0  0  0
   -1.7734   29.3485    6.6627 C   0  0  0  0  0  0  0  0  0  0  0  0
   -1.2442   29.3128    7.9573 C   0  0  0  0  0  0  0  0  0  0  0  0
   -2.0534   28.9669    9.0375 C   0  0  0  0  0  0  0  0  0  0  0  0
   -3.3936   28.6669    8.8210 C   0  0  0  0  0  0  0  0  0  0  0  0
   -4.4018   28.2341   10.1456 Cl  0  0  0  0  0  0  0  0  0  0  0  0
   -3.9274   28.7078    7.5327 C   0  0  0  0  0  0  0  0  0  0  0  0
  2  1  1  6
  2  3  1  0
  3  4  1  0
  4  5  2  0
  5  6  1  0
  6  7  2  0
  7  8  1  0
  8  9  2  0
  2 10  1  0
 10 11  2  0
 11 12  1  0
 12 13  2  0
 13 14  1  0
 14 15  1  0
 14 16  2  0
  9  4  1  0
 16 10  1  0
M  CHG  1   8   1
M  END
>  <Energy>  (1212) 
76.663607216648458

>  <Energy_Delta>  (1212) 
5.4539947824752204

>  <std_smi>  (1212) 
CC(Nc1cccnc1)c1cccc(Cl)c1

>  <enum_smi>  (1212) 
C[C@@H](Nc1ccc[nH+]c1)c1cccc(Cl)c1

>  <enum_code>  (1212) 
M

>  <parent_uuid>  (1212) 
85d0fcce-c5b2-415e-8993-f2f147ae328b

>  <o3da_score>  (1212) 
68.46318581601291

>  <o3da_score_rel>  (1212) 
0.27256189015229038

>  <o3da_align>  (1212) 
0.22433797163661334

>  <RMSD>  (1212) 
8.5871739637085836e-05

>  <CONVERGED>  (1212) 
0

>  <ENERGY>  (1212) 
76.663607115021748

$$$$
80177037-97d9-4251-9583-a2fb747585df
     RDKit          3D

 16 17  0  0  0  0  0  0  0  0999 V2000
    0.8375   31.9692   -0.7371 C   0  0  0  0  0  0  0  0  0  0  0  0
    0.0879   31.9856    0.5721 C   0  0  0  0  0  0  0  0  0  0  0  0
    0.1370   32.9646    1.3079 O   0  0  0  0  0  0  0  0  0  0  0  0
   -0.5829   30.7985    0.8040 N   0  0  0  0  0  0  0  0  0  0  0  0
   -1.3842   30.4665    1.9175 C   0  0  0  0  0  0  0  0  0  0  0  0
   -1.6466   31.3340    2.9732 C   0  0  0  0  0  0  0  0  0  0  0  0
   -2.4736   30.9274    4.0200 C   0  0  0  0  0  0  0  0  0  0  0  0
   -3.0322   29.6464    4.0258 C   0  0  0  0  0  0  0  0  0  0  0  0
   -2.7547   28.7348    3.0051 C   0  0  0  0  0  0  0  0  0  0  0  0
   -3.3263   27.4662    2.9155 N   0  0  0  0  0  0  0  0  0  0  0  0
   -3.9469   26.7962    4.0554 C   0  0  0  0  0  0  0  0  0  0  0  0
   -2.8856   26.2934    5.0334 C   0  0  0  0  0  0  0  0  0  0  0  0
   -4.7389   25.6300    3.5098 C   0  0  0  0  0  0  0  0  0  0  0  0
   -6.0073   25.1751    4.1900 C   0  0  0  0  0  0  0  0  0  0  0  0
   -6.0786   25.8624    2.8549 C   0  0  0  0  0  0  0  0  0  0  0  0
   -1.9519   29.1815    1.9406 C   0  0  0  0  0  0  0  0  0  0  0  0
  1  2  1  0
  2  3  2  0
  2  4  1  0
  4  5  1  0
  5  6  2  0
  6  7  1  0
  7  8  2  0
  8  9  1  0
  9 10  1  0
 10 11  1  0
 11 12  1  0
 11 13  1  0
 13 14  1  0
 14 15  1  0
  9 16  2  0
 16  5  1  0
 15 13  1  0
M  END
>  <Energy>  (1213) 
10.080806585729309

>  <Energy_Delta>  (1213) 
0

>  <std_smi>  (1213) 
CC(=O)Nc1cccc(NC(C)C2CC2)c1

>  <enum_smi>  (1213) 
CC(=O)Nc1cccc(NC(C)C2CC2)c1

>  <enum_code>  (1213) 
B

>  <o3da_score>  (1213) 
90.098246240317025

>  <o3da_score_rel>  (1213) 
0.35869420918656053

>  <o3da_align>  (1213) 
0.55220321885558366

>  <RMSD>  (1213) 
0.28895467339386138

>  <CONVERGED>  (1213) 
0

>  <ENERGY>  (1213) 
9.9889697835875602

$$$$
80177037-97d9-4251-9583-a2fb747585df
     RDKit          3D

 16 17  0  0  0  0  0  0  0  0999 V2000
    1.1169   32.1647   -0.5744 C   0  0  0  0  0  0  0  0  0  0  0  0
    0.2059   32.0859    0.6257 C   0  0  0  0  0  0  0  0  0  0  0  0
    0.1711   32.9973    1.4446 O   0  0  0  0  0  0  0  0  0  0  0  0
   -0.5022   30.8985    0.6660 N   0  0  0  0  0  0  0  0  0  0  0  0
   -1.4433   30.4906    1.6355 C   0  0  0  0  0  0  0  0  0  0  0  0
   -1.8293   31.2703    2.7213 C   0  0  0  0  0  0  0  0  0  0  0  0
   -2.7880   30.7943    3.6152 C   0  0  0  0  0  0  0  0  0  0  0  0
   -3.3570   29.5302    3.4380 C   0  0  0  0  0  0  0  0  0  0  0  0
   -2.9610   28.7031    2.3849 C   0  0  0  0  0  0  0  0  0  0  0  0
   -3.5304   27.4598    2.1130 N   0  0  0  0  0  0  0  0  0  0  0  0
   -4.2994   26.7088    3.1019 C   0  0  0  0  0  0  0  0  0  0  0  0
   -3.3779   26.1011    4.1589 C   0  0  0  0  0  0  0  0  0  0  0  0
   -5.0277   25.6113    2.3605 C   0  0  0  0  0  0  0  0  0  0  0  0
   -6.2698   25.9284    1.5638 C   0  0  0  0  0  0  0  0  0  0  0  0
   -6.3779   25.1283    2.8320 C   0  0  0  0  0  0  0  0  0  0  0  0
   -2.0234   29.2212    1.4739 C   0  0  0  0  0  0  0  0  0  0  0  0
  1  2  1  0
  2  3  2  0
  2  4  1  0
  4  5  1  0
  5  6  2  0
  6  7  1  0
  7  8  2  0
  8  9  1  0
  9 10  1  0
 10 11  1  0
 11 12  1  0
 11 13  1  0
 13 14  1  0
 14 15  1  0
  9 16  2  0
 16  5  1  0
 15 13  1  0
M  END
>  <Energy>  (1214) 
10.080806585933212

>  <Energy_Delta>  (1214) 
2.0390267252423655e-10

>  <std_smi>  (1214) 
CC(=O)Nc1cccc(NC(C)C2CC2)c1

>  <enum_smi>  (1214) 
CC(=O)Nc1cccc(NC(C)C2CC2)c1

>  <enum_code>  (1214) 
B

>  <o3da_score>  (1214) 
83.006761200769489

>  <o3da_score_rel>  (1214) 
0.33046197688057155

>  <o3da_align>  (1214) 
0.35878633441030638

>  <RMSD>  (1214) 
0.28895663199660931

>  <CONVERGED>  (1214) 
0

>  <ENERGY>  (1214) 
9.9889697835849134

$$$$
80177037-97d9-4251-9583-a2fb747585df
     RDKit          3D

 16 17  0  0  0  0  0  0  0  0999 V2000
    0.6560   32.0921   -0.8570 C   0  0  0  0  0  0  0  0  0  0  0  0
   -0.1563   32.0997    0.4144 C   0  0  0  0  0  0  0  0  0  0  0  0
   -0.3168   33.1369    1.0474 O   0  0  0  0  0  0  0  0  0  0  0  0
   -0.6293   30.8409    0.7378 N   0  0  0  0  0  0  0  0  0  0  0  0
   -1.4079   30.4756    1.8569 C   0  0  0  0  0  0  0  0  0  0  0  0
   -1.8247   31.3682    2.8394 C   0  0  0  0  0  0  0  0  0  0  0  0
   -2.5720   30.9109    3.9245 C   0  0  0  0  0  0  0  0  0  0  0  0
   -2.9204   29.5614    4.0272 C   0  0  0  0  0  0  0  0  0  0  0  0
   -2.5580   28.6464    3.0366 C   0  0  0  0  0  0  0  0  0  0  0  0
   -2.8176   27.2783    3.1058 N   0  0  0  0  0  0  0  0  0  0  0  0
   -3.8275   26.7088    3.9940 C   0  0  0  0  0  0  0  0  0  0  0  0
   -5.2344   26.9901    3.4675 C   0  0  0  0  0  0  0  0  0  0  0  0
   -3.5853   25.2177    4.0463 C   0  0  0  0  0  0  0  0  0  0  0  0
   -2.4620   24.6602    4.8862 C   0  0  0  0  0  0  0  0  0  0  0  0
   -3.8895   24.4316    5.2986 C   0  0  0  0  0  0  0  0  0  0  0  0
   -1.7702   29.1232    1.9738 C   0  0  0  0  0  0  0  0  0  0  0  0
  1  2  1  0
  2  3  2  0
  2  4  1  0
  4  5  1  0
  5  6  2  0
  6  7  1  0
  7  8  2  0
  8  9  1  0
  9 10  1  0
 10 11  1  0
 11 12  1  0
 11 13  1  0
 13 14  1  0
 14 15  1  0
  9 16  2  0
 16  5  1  0
 15 13  1  0
M  END
>  <Energy>  (1215) 
10.080806586836829

>  <Energy_Delta>  (1215) 
1.1075194095155894e-09

>  <std_smi>  (1215) 
CC(=O)Nc1cccc(NC(C)C2CC2)c1

>  <enum_smi>  (1215) 
CC(=O)Nc1cccc(NC(C)C2CC2)c1

>  <enum_code>  (1215) 
B

>  <o3da_score>  (1215) 
85.009199749967692

>  <o3da_score_rel>  (1215) 
0.3384339756909982

>  <o3da_align>  (1215) 
0.51499879603052734

>  <RMSD>  (1215) 
0.2817116769227227

>  <CONVERGED>  (1215) 
0

>  <ENERGY>  (1215) 
9.997172826229658

$$$$
80177037-97d9-4251-9583-a2fb747585df
     RDKit          3D

 16 17  0  0  0  0  0  0  0  0999 V2000
    0.5954   32.1987   -0.9022 C   0  0  0  0  0  0  0  0  0  0  0  0
   -0.1693   32.1568    0.3978 C   0  0  0  0  0  0  0  0  0  0  0  0
   -0.3182   33.1718    1.0684 O   0  0  0  0  0  0  0  0  0  0  0  0
   -0.6153   30.8827    0.6988 N   0  0  0  0  0  0  0  0  0  0  0  0
   -1.3476   30.4731    1.8338 C   0  0  0  0  0  0  0  0  0  0  0  0
   -1.7381   31.3296    2.8583 C   0  0  0  0  0  0  0  0  0  0  0  0
   -2.4393   30.8296    3.9553 C   0  0  0  0  0  0  0  0  0  0  0  0
   -2.7680   29.4733    4.0284 C   0  0  0  0  0  0  0  0  0  0  0  0
   -2.4319   28.5939    2.9971 C   0  0  0  0  0  0  0  0  0  0  0  0
   -2.6728   27.2212    3.0329 N   0  0  0  0  0  0  0  0  0  0  0  0
   -3.6425   26.6117    3.9394 C   0  0  0  0  0  0  0  0  0  0  0  0
   -5.0711   26.8911    3.4739 C   0  0  0  0  0  0  0  0  0  0  0  0
   -3.3812   25.1229    3.9361 C   0  0  0  0  0  0  0  0  0  0  0  0
   -3.6296   24.2948    5.1734 C   0  0  0  0  0  0  0  0  0  0  0  0
   -2.2211   24.5542    4.7163 C   0  0  0  0  0  0  0  0  0  0  0  0
   -1.6896   29.1132    1.9215 C   0  0  0  0  0  0  0  0  0  0  0  0
  1  2  1  0
  2  3  2  0
  2  4  1  0
  4  5  1  0
  5  6  2  0
  6  7  1  0
  7  8  2  0
  8  9  1  0
  9 10  1  0
 10 11  1  0
 11 12  1  0
 11 13  1  0
 13 14  1  0
 14 15  1  0
  9 16  2  0
 16  5  1  0
 15 13  1  0
M  END
>  <Energy>  (1216) 
10.089090127453613

>  <Energy_Delta>  (1216) 
0.0082835417243032339

>  <std_smi>  (1216) 
CC(=O)Nc1cccc(NC(C)C2CC2)c1

>  <enum_smi>  (1216) 
CC(=O)Nc1cccc(NC(C)C2CC2)c1

>  <enum_code>  (1216) 
B

>  <o3da_score>  (1216) 
86.454890907159026

>  <o3da_score_rel>  (1216) 
0.34418948224074397

>  <o3da_align>  (1216) 
0.4720162499253206

>  <RMSD>  (1216) 
0.27539602541605535

>  <CONVERGED>  (1216) 
0

>  <ENERGY>  (1216) 
9.9971728262222452

$$$$
80177037-97d9-4251-9583-a2fb747585df
     RDKit          3D

 16 17  0  0  0  0  0  0  0  0999 V2000
    0.3548   22.7546    6.2616 C   0  0  0  0  0  0  0  0  0  0  0  0
   -1.0997   22.8345    5.8688 C   0  0  0  0  0  0  0  0  0  0  0  0
   -1.7977   21.8273    5.8494 O   0  0  0  0  0  0  0  0  0  0  0  0
   -1.4936   24.1305    5.5887 N   0  0  0  0  0  0  0  0  0  0  0  0
   -2.7723   24.5743    5.1866 C   0  0  0  0  0  0  0  0  0  0  0  0
   -3.8575   23.7268    4.9792 C   0  0  0  0  0  0  0  0  0  0  0  0
   -5.0788   24.2486    4.5563 C   0  0  0  0  0  0  0  0  0  0  0  0
   -5.2229   25.6219    4.3544 C   0  0  0  0  0  0  0  0  0  0  0  0
   -4.1654   26.5084    4.5946 C   0  0  0  0  0  0  0  0  0  0  0  0
   -4.3610   27.8609    4.3179 N   0  0  0  0  0  0  0  0  0  0  0  0
   -3.4878   28.9109    4.8340 C   0  0  0  0  0  0  0  0  0  0  0  0
   -3.7104   29.1153    6.3320 C   0  0  0  0  0  0  0  0  0  0  0  0
   -3.8228   30.1797    4.0846 C   0  0  0  0  0  0  0  0  0  0  0  0
   -3.3196   30.3852    2.6766 C   0  0  0  0  0  0  0  0  0  0  0  0
   -2.7579   31.2111    3.8001 C   0  0  0  0  0  0  0  0  0  0  0  0
   -2.9356   25.9562    4.9785 C   0  0  0  0  0  0  0  0  0  0  0  0
  1  2  1  0
  2  3  2  0
  2  4  1  0
  4  5  1  0
  5  6  2  0
  6  7  1  0
  7  8  2  0
  8  9  1  0
  9 10  1  0
 10 11  1  0
 11 12  1  0
 11 13  1  0
 13 14  1  0
 14 15  1  0
  9 16  2  0
 16  5  1  0
 15 13  1  0
M  END
>  <Energy>  (1217) 
10.201312145479449

>  <Energy_Delta>  (1217) 
0.12050555975013921

>  <std_smi>  (1217) 
CC(=O)Nc1cccc(NC(C)C2CC2)c1

>  <enum_smi>  (1217) 
CC(=O)Nc1cccc(NC(C)C2CC2)c1

>  <enum_code>  (1217) 
B

>  <o3da_score>  (1217) 
82.236993797264773

>  <o3da_score_rel>  (1217) 
0.32739742100318797

>  <o3da_align>  (1217) 
0.41007322581860034

>  <RMSD>  (1217) 
0.28401304669320138

>  <CONVERGED>  (1217) 
0

>  <ENERGY>  (1217) 
10.044515773731867

$$$$
80177037-97d9-4251-9583-a2fb747585df
     RDKit          3D

 16 17  0  0  0  0  0  0  0  0999 V2000
    0.8814   32.7588   -0.6008 C   0  0  0  0  0  0  0  0  0  0  0  0
    0.0220   32.0162    0.3921 C   0  0  0  0  0  0  0  0  0  0  0  0
   -0.3235   30.8598    0.1794 O   0  0  0  0  0  0  0  0  0  0  0  0
   -0.3016   32.8002    1.4850 N   0  0  0  0  0  0  0  0  0  0  0  0
   -1.1000   32.4460    2.5938 C   0  0  0  0  0  0  0  0  0  0  0  0
   -1.2499   33.4028    3.6009 C   0  0  0  0  0  0  0  0  0  0  0  0
   -2.0352   33.1292    4.7188 C   0  0  0  0  0  0  0  0  0  0  0  0
   -2.6693   31.8913    4.8446 C   0  0  0  0  0  0  0  0  0  0  0  0
   -2.5129   30.8993    3.8728 C   0  0  0  0  0  0  0  0  0  0  0  0
   -3.1723   29.6699    3.9086 N   0  0  0  0  0  0  0  0  0  0  0  0
   -3.6649   29.0759    5.1475 C   0  0  0  0  0  0  0  0  0  0  0  0
   -2.5063   28.5652    6.0034 C   0  0  0  0  0  0  0  0  0  0  0  0
   -4.5688   27.9269    4.7643 C   0  0  0  0  0  0  0  0  0  0  0  0
   -5.7519   27.5558    5.6252 C   0  0  0  0  0  0  0  0  0  0  0  0
   -5.9739   28.1947    4.2827 C   0  0  0  0  0  0  0  0  0  0  0  0
   -1.7460   31.2130    2.7345 C   0  0  0  0  0  0  0  0  0  0  0  0
  1  2  1  0
  2  3  2  0
  2  4  1  0
  4  5  1  0
  5  6  2  0
  6  7  1  0
  7  8  2  0
  8  9  1  0
  9 10  1  0
 10 11  1  0
 11 12  1  0
 11 13  1  0
 13 14  1  0
 14 15  1  0
  9 16  2  0
 16  5  1  0
 15 13  1  0
M  END
>  <Energy>  (1218) 
10.264461046236789

>  <Energy_Delta>  (1218) 
0.18365446050747991

>  <std_smi>  (1218) 
CC(=O)Nc1cccc(NC(C)C2CC2)c1

>  <enum_smi>  (1218) 
CC(=O)Nc1cccc(NC(C)C2CC2)c1

>  <enum_code>  (1218) 
B

>  <o3da_score>  (1218) 
102.17463396406491

>  <o3da_score_rel>  (1218) 
0.40677206336416694

>  <o3da_align>  (1218) 
0.27105471328600406

>  <RMSD>  (1218) 
6.5616674086645406e-05

>  <CONVERGED>  (1218) 
0

>  <ENERGY>  (1218) 
10.26446104616344

$$$$
80177037-97d9-4251-9583-a2fb747585df
     RDKit          3D

 16 17  0  0  0  0  0  0  0  0999 V2000
    0.4839   23.0481    6.2570 C   0  0  0  0  0  0  0  0  0  0  0  0
   -0.8841   23.0736    5.6210 C   0  0  0  0  0  0  0  0  0  0  0  0
   -1.3908   22.0455    5.1871 O   0  0  0  0  0  0  0  0  0  0  0  0
   -1.4393   24.3403    5.6316 N   0  0  0  0  0  0  0  0  0  0  0  0
   -2.7022   24.7317    5.1361 C   0  0  0  0  0  0  0  0  0  0  0  0
   -3.6095   23.8558    4.5459 C   0  0  0  0  0  0  0  0  0  0  0  0
   -4.8473   24.3244    4.1090 C   0  0  0  0  0  0  0  0  0  0  0  0
   -5.1743   25.6745    4.2441 C   0  0  0  0  0  0  0  0  0  0  0  0
   -4.2668   26.5923    4.7883 C   0  0  0  0  0  0  0  0  0  0  0  0
   -4.6750   27.9191    4.9447 N   0  0  0  0  0  0  0  0  0  0  0  0
   -3.7206   29.0263    4.9878 C   0  0  0  0  0  0  0  0  0  0  0  0
   -4.4209   30.2257    5.6327 C   0  0  0  0  0  0  0  0  0  0  0  0
   -3.2908   29.3753    3.5845 C   0  0  0  0  0  0  0  0  0  0  0  0
   -2.0974   28.7106    2.9417 C   0  0  0  0  0  0  0  0  0  0  0  0
   -2.0205   30.1557    3.3447 C   0  0  0  0  0  0  0  0  0  0  0  0
   -3.0479   26.0894    5.2629 C   0  0  0  0  0  0  0  0  0  0  0  0
  1  2  1  0
  2  3  2  0
  2  4  1  0
  4  5  1  0
  5  6  2  0
  6  7  1  0
  7  8  2  0
  8  9  1  0
  9 10  1  0
 10 11  1  0
 11 12  1  0
 11 13  1  0
 13 14  1  0
 14 15  1  0
  9 16  2  0
 16  5  1  0
 15 13  1  0
M  END
>  <Energy>  (1219) 
10.430629540047679

>  <Energy_Delta>  (1219) 
0.34982295431836974

>  <std_smi>  (1219) 
CC(=O)Nc1cccc(NC(C)C2CC2)c1

>  <enum_smi>  (1219) 
CC(=O)Nc1cccc(NC(C)C2CC2)c1

>  <enum_code>  (1219) 
B

>  <o3da_score>  (1219) 
91.228657294503506

>  <o3da_score_rel>  (1219) 
0.36319453983734434

>  <o3da_align>  (1219) 
0.28625604446435049

>  <RMSD>  (1219) 
7.1836431828561714e-05

>  <CONVERGED>  (1219) 
0

>  <ENERGY>  (1219) 
10.430629539859007

$$$$
80177037-97d9-4251-9583-a2fb747585df
     RDKit          3D

 16 17  0  0  0  0  0  0  0  0999 V2000
   -7.6180   22.2118    2.5252 C   0  0  0  0  0  0  0  0  0  0  0  0
   -7.0249   23.5029    3.0325 C   0  0  0  0  0  0  0  0  0  0  0  0
   -7.6557   24.5512    2.9633 O   0  0  0  0  0  0  0  0  0  0  0  0
   -5.7609   23.3185    3.5636 N   0  0  0  0  0  0  0  0  0  0  0  0
   -4.9194   24.2918    4.1439 C   0  0  0  0  0  0  0  0  0  0  0  0
   -3.6602   23.8677    4.5758 C   0  0  0  0  0  0  0  0  0  0  0  0
   -2.7809   24.7696    5.1714 C   0  0  0  0  0  0  0  0  0  0  0  0
   -3.1496   26.1072    5.3307 C   0  0  0  0  0  0  0  0  0  0  0  0
   -4.3875   26.5724    4.8791 C   0  0  0  0  0  0  0  0  0  0  0  0
   -4.8394   27.8791    5.0687 N   0  0  0  0  0  0  0  0  0  0  0  0
   -3.9326   29.0042    5.2739 C   0  0  0  0  0  0  0  0  0  0  0  0
   -3.2085   29.3622    3.9765 C   0  0  0  0  0  0  0  0  0  0  0  0
   -4.7693   30.1743    5.7374 C   0  0  0  0  0  0  0  0  0  0  0  0
   -5.2502   30.2446    7.1663 C   0  0  0  0  0  0  0  0  0  0  0  0
   -4.1991   31.2042    6.6823 C   0  0  0  0  0  0  0  0  0  0  0  0
   -5.2734   25.6344    4.3155 C   0  0  0  0  0  0  0  0  0  0  0  0
  1  2  1  0
  2  3  2  0
  2  4  1  0
  4  5  1  0
  5  6  2  0
  6  7  1  0
  7  8  2  0
  8  9  1  0
  9 10  1  0
 10 11  1  0
 11 12  1  0
 11 13  1  0
 13 14  1  0
 14 15  1  0
  9 16  2  0
 16  5  1  0
 15 13  1  0
M  END
>  <Energy>  (1220) 
10.446877714433102

>  <Energy_Delta>  (1220) 
0.36607112870379233

>  <std_smi>  (1220) 
CC(=O)Nc1cccc(NC(C)C2CC2)c1

>  <enum_smi>  (1220) 
CC(=O)Nc1cccc(NC(C)C2CC2)c1

>  <enum_code>  (1220) 
B

>  <o3da_score>  (1220) 
84.74416923768085

>  <o3da_score_rel>  (1220) 
0.33737885071374313

>  <o3da_align>  (1220) 
0.38179826408057843

>  <RMSD>  (1220) 
0.39359799546649837

>  <CONVERGED>  (1220) 
0

>  <ENERGY>  (1220) 
10.264461046156748

$$$$
80177037-97d9-4251-9583-a2fb747585df
     RDKit          3D

 16 17  0  0  0  0  0  0  0  0999 V2000
   -7.6858   22.3800    2.5309 C   0  0  0  0  0  0  0  0  0  0  0  0
   -7.0361   23.6502    3.0216 C   0  0  0  0  0  0  0  0  0  0  0  0
   -7.6248   24.7225    2.9485 O   0  0  0  0  0  0  0  0  0  0  0  0
   -5.7767   23.4193    3.5454 N   0  0  0  0  0  0  0  0  0  0  0  0
   -4.8904   24.3632    4.1076 C   0  0  0  0  0  0  0  0  0  0  0  0
   -3.6503   23.8898    4.5438 C   0  0  0  0  0  0  0  0  0  0  0  0
   -2.7303   24.7605    5.1241 C   0  0  0  0  0  0  0  0  0  0  0  0
   -3.0378   26.1157    5.2614 C   0  0  0  0  0  0  0  0  0  0  0  0
   -4.2528   26.6295    4.8008 C   0  0  0  0  0  0  0  0  0  0  0  0
   -4.6406   27.9623    4.9685 N   0  0  0  0  0  0  0  0  0  0  0  0
   -3.6678   29.0536    4.9752 C   0  0  0  0  0  0  0  0  0  0  0  0
   -4.3263   30.2659    5.6394 C   0  0  0  0  0  0  0  0  0  0  0  0
   -3.2805   29.3916    3.5568 C   0  0  0  0  0  0  0  0  0  0  0  0
   -2.1172   28.7081    2.8795 C   0  0  0  0  0  0  0  0  0  0  0  0
   -2.0089   30.1544    3.2708 C   0  0  0  0  0  0  0  0  0  0  0  0
   -5.1827   25.7233    4.2565 C   0  0  0  0  0  0  0  0  0  0  0  0
  1  2  1  0
  2  3  2  0
  2  4  1  0
  4  5  1  0
  5  6  2  0
  6  7  1  0
  7  8  2  0
  8  9  1  0
  9 10  1  0
 10 11  1  0
 11 12  1  0
 11 13  1  0
 13 14  1  0
 14 15  1  0
  9 16  2  0
 16  5  1  0
 15 13  1  0
M  END
>  <Energy>  (1221) 
10.626874383150662

>  <Energy_Delta>  (1221) 
0.54606779742135281

>  <std_smi>  (1221) 
CC(=O)Nc1cccc(NC(C)C2CC2)c1

>  <enum_smi>  (1221) 
CC(=O)Nc1cccc(NC(C)C2CC2)c1

>  <enum_code>  (1221) 
B

>  <o3da_score>  (1221) 
99.992807586399508

>  <o3da_score_rel>  (1221) 
0.39808589554430024

>  <o3da_align>  (1221) 
0.28858339101507058

>  <RMSD>  (1221) 
0.015423233550576331

>  <CONVERGED>  (1221) 
0

>  <ENERGY>  (1221) 
10.653053848632773

$$$$
80177037-97d9-4251-9583-a2fb747585df
     RDKit          3D

 16 17  0  0  0  0  0  0  0  0999 V2000
    0.8420   31.9501   -0.7466 C   0  0  0  0  0  0  0  0  0  0  0  0
   -0.0267   32.0085    0.4856 C   0  0  0  0  0  0  0  0  0  0  0  0
   -0.1987   33.0667    1.0796 O   0  0  0  0  0  0  0  0  0  0  0  0
   -0.5344   30.7673    0.8242 N   0  0  0  0  0  0  0  0  0  0  0  0
   -1.3687   30.4478    1.9169 C   0  0  0  0  0  0  0  0  0  0  0  0
   -1.8147   31.3758    2.8526 C   0  0  0  0  0  0  0  0  0  0  0  0
   -2.6174   30.9628    3.9155 C   0  0  0  0  0  0  0  0  0  0  0  0
   -2.9924   29.6224    4.0421 C   0  0  0  0  0  0  0  0  0  0  0  0
   -2.6012   28.6726    3.0964 C   0  0  0  0  0  0  0  0  0  0  0  0
   -2.8844   27.3102    3.1927 N   0  0  0  0  0  0  0  0  0  0  0  0
   -3.9463   26.7801    4.0465 C   0  0  0  0  0  0  0  0  0  0  0  0
   -5.3158   27.0528    3.4214 C   0  0  0  0  0  0  0  0  0  0  0  0
   -3.7757   25.2897    4.2682 C   0  0  0  0  0  0  0  0  0  0  0  0
   -3.4130   24.3182    3.1675 C   0  0  0  0  0  0  0  0  0  0  0  0
   -2.4220   24.6173    4.2609 C   0  0  0  0  0  0  0  0  0  0  0  0
   -1.7581   29.1053    2.0571 C   0  0  0  0  0  0  0  0  0  0  0  0
  1  2  1  0
  2  3  2  0
  2  4  1  0
  4  5  1  0
  5  6  2  0
  6  7  1  0
  7  8  2  0
  8  9  1  0
  9 10  1  0
 10 11  1  0
 11 12  1  0
 11 13  1  0
 13 14  1  0
 14 15  1  0
  9 16  2  0
 16  5  1  0
 15 13  1  0
M  END
>  <Energy>  (1222) 
11.426179679922535

>  <Energy_Delta>  (1222) 
1.345373094193226

>  <std_smi>  (1222) 
CC(=O)Nc1cccc(NC(C)C2CC2)c1

>  <enum_smi>  (1222) 
CC(=O)Nc1cccc(NC(C)C2CC2)c1

>  <enum_code>  (1222) 
B

>  <o3da_score>  (1222) 
83.384334314244754

>  <o3da_score_rel>  (1222) 
0.3319651503051339

>  <o3da_align>  (1222) 
0.55939443300140645

>  <RMSD>  (1222) 
6.4136813526096176e-05

>  <CONVERGED>  (1222) 
0

>  <ENERGY>  (1222) 
11.426179679674277

$$$$
80177037-97d9-4251-9583-a2fb747585df
     RDKit          3D

 16 17  0  0  0  0  0  0  0  0999 V2000
    0.4662   23.0147    6.2557 C   0  0  0  0  0  0  0  0  0  0  0  0
   -0.9184   23.0387    5.6568 C   0  0  0  0  0  0  0  0  0  0  0  0
   -1.4588   22.0017    5.2900 O   0  0  0  0  0  0  0  0  0  0  0  0
   -1.4465   24.3165    5.6180 N   0  0  0  0  0  0  0  0  0  0  0  0
   -2.7149   24.7105    5.1385 C   0  0  0  0  0  0  0  0  0  0  0  0
   -3.6566   23.8259    4.6194 C   0  0  0  0  0  0  0  0  0  0  0  0
   -4.8957   24.2990    4.1912 C   0  0  0  0  0  0  0  0  0  0  0  0
   -5.1904   25.6610    4.2657 C   0  0  0  0  0  0  0  0  0  0  0  0
   -4.2506   26.5852    4.7399 C   0  0  0  0  0  0  0  0  0  0  0  0
   -4.6335   27.9228    4.8404 N   0  0  0  0  0  0  0  0  0  0  0  0
   -3.6733   29.0163    4.9748 C   0  0  0  0  0  0  0  0  0  0  0  0
   -2.9570   29.2609    3.6453 C   0  0  0  0  0  0  0  0  0  0  0  0
   -4.3563   30.2917    5.4283 C   0  0  0  0  0  0  0  0  0  0  0  0
   -5.6029   30.2858    6.2830 C   0  0  0  0  0  0  0  0  0  0  0  0
   -5.6707   30.7803    4.8625 C   0  0  0  0  0  0  0  0  0  0  0  0
   -3.0283   26.0807    5.2046 C   0  0  0  0  0  0  0  0  0  0  0  0
  1  2  1  0
  2  3  2  0
  2  4  1  0
  4  5  1  0
  5  6  2  0
  6  7  1  0
  7  8  2  0
  8  9  1  0
  9 10  1  0
 10 11  1  0
 11 12  1  0
 11 13  1  0
 13 14  1  0
 14 15  1  0
  9 16  2  0
 16  5  1  0
 15 13  1  0
M  END
>  <Energy>  (1223) 
11.482468388799855

>  <Energy_Delta>  (1223) 
1.4016618030705459

>  <std_smi>  (1223) 
CC(=O)Nc1cccc(NC(C)C2CC2)c1

>  <enum_smi>  (1223) 
CC(=O)Nc1cccc(NC(C)C2CC2)c1

>  <enum_code>  (1223) 
B

>  <o3da_score>  (1223) 
80.274092731981071

>  <o3da_score_rel>  (1223) 
0.31958282666085847

>  <o3da_align>  (1223) 
0.12267649392265512

>  <RMSD>  (1223) 
0.017287658240917176

>  <CONVERGED>  (1223) 
0

>  <ENERGY>  (1223) 
11.491230457157787

$$$$
80177037-97d9-4251-9583-a2fb747585df
     RDKit          3D

 16 17  0  0  0  0  0  0  0  0999 V2000
   -7.7967   22.3792    2.6845 C   0  0  0  0  0  0  0  0  0  0  0  0
   -7.1148   23.6437    3.1457 C   0  0  0  0  0  0  0  0  0  0  0  0
   -7.6899   24.7238    3.0756 O   0  0  0  0  0  0  0  0  0  0  0  0
   -5.8520   23.3997    3.6545 N   0  0  0  0  0  0  0  0  0  0  0  0
   -4.9307   24.3418    4.1606 C   0  0  0  0  0  0  0  0  0  0  0  0
   -3.7326   23.8448    4.6797 C   0  0  0  0  0  0  0  0  0  0  0  0
   -2.7688   24.7171    5.1813 C   0  0  0  0  0  0  0  0  0  0  0  0
   -2.9993   26.0946    5.1778 C   0  0  0  0  0  0  0  0  0  0  0  0
   -4.2005   26.6231    4.6979 C   0  0  0  0  0  0  0  0  0  0  0  0
   -4.4639   27.9910    4.6039 N   0  0  0  0  0  0  0  0  0  0  0  0
   -3.7913   28.9830    5.4395 C   0  0  0  0  0  0  0  0  0  0  0  0
   -4.3170   28.9133    6.8747 C   0  0  0  0  0  0  0  0  0  0  0  0
   -3.9881   30.3834    4.8921 C   0  0  0  0  0  0  0  0  0  0  0  0
   -4.1840   30.6593    3.4190 C   0  0  0  0  0  0  0  0  0  0  0  0
   -5.3152   30.8998    4.3832 C   0  0  0  0  0  0  0  0  0  0  0  0
   -5.1422   25.7248    4.1604 C   0  0  0  0  0  0  0  0  0  0  0  0
  1  2  1  0
  2  3  2  0
  2  4  1  0
  4  5  1  0
  5  6  2  0
  6  7  1  0
  7  8  2  0
  8  9  1  0
  9 10  1  0
 10 11  1  0
 11 12  1  0
 11 13  1  0
 13 14  1  0
 14 15  1  0
  9 16  2  0
 16  5  1  0
 15 13  1  0
M  END
>  <Energy>  (1224) 
11.6404266120675

>  <Energy_Delta>  (1224) 
1.559620026338191

>  <std_smi>  (1224) 
CC(=O)Nc1cccc(NC(C)C2CC2)c1

>  <enum_smi>  (1224) 
CC(=O)Nc1cccc(NC(C)C2CC2)c1

>  <enum_code>  (1224) 
B

>  <o3da_score>  (1224) 
81.51008006662579

>  <o3da_score_rel>  (1224) 
0.32450347182394496

>  <o3da_align>  (1224) 
0.21838399185664056

>  <RMSD>  (1224) 
6.5189063454186908e-05

>  <CONVERGED>  (1224) 
0

>  <ENERGY>  (1224) 
11.640426610907276

$$$$
80177037-97d9-4251-9583-a2fb747585df
     RDKit          3D

 16 17  0  0  0  0  0  0  0  0999 V2000
   -7.7380   22.3566    2.6293 C   0  0  0  0  0  0  0  0  0  0  0  0
   -7.0637   23.6338    3.0654 C   0  0  0  0  0  0  0  0  0  0  0  0
   -7.6266   24.7146    2.9358 O   0  0  0  0  0  0  0  0  0  0  0  0
   -5.8138   23.3996    3.6100 N   0  0  0  0  0  0  0  0  0  0  0  0
   -4.9118   24.3486    4.1373 C   0  0  0  0  0  0  0  0  0  0  0  0
   -3.6821   23.8703    4.5966 C   0  0  0  0  0  0  0  0  0  0  0  0
   -2.7474   24.7468    5.1439 C   0  0  0  0  0  0  0  0  0  0  0  0
   -3.0300   26.1120    5.2265 C   0  0  0  0  0  0  0  0  0  0  0  0
   -4.2354   26.6289    4.7444 C   0  0  0  0  0  0  0  0  0  0  0  0
   -4.6056   27.9702    4.8591 N   0  0  0  0  0  0  0  0  0  0  0  0
   -3.6300   29.0491    4.9959 C   0  0  0  0  0  0  0  0  0  0  0  0
   -2.9161   29.2921    3.6647 C   0  0  0  0  0  0  0  0  0  0  0  0
   -4.2937   30.3312    5.4598 C   0  0  0  0  0  0  0  0  0  0  0  0
   -5.5372   30.3372    6.3190 C   0  0  0  0  0  0  0  0  0  0  0  0
   -5.6035   30.8404    4.9014 C   0  0  0  0  0  0  0  0  0  0  0  0
   -5.1794   25.7185    4.2319 C   0  0  0  0  0  0  0  0  0  0  0  0
  1  2  1  0
  2  3  2  0
  2  4  1  0
  4  5  1  0
  5  6  2  0
  6  7  1  0
  7  8  2  0
  8  9  1  0
  9 10  1  0
 10 11  1  0
 11 12  1  0
 11 13  1  0
 13 14  1  0
 14 15  1  0
  9 16  2  0
 16  5  1  0
 15 13  1  0
M  END
>  <Energy>  (1225) 
11.671930105422003

>  <Energy_Delta>  (1225) 
1.5911235196926938

>  <std_smi>  (1225) 
CC(=O)Nc1cccc(NC(C)C2CC2)c1

>  <enum_smi>  (1225) 
CC(=O)Nc1cccc(NC(C)C2CC2)c1

>  <enum_code>  (1225) 
B

>  <o3da_score>  (1225) 
88.998353329890037

>  <o3da_score_rel>  (1225) 
0.3543153757002438

>  <o3da_align>  (1225) 
0.14492682378767319

>  <RMSD>  (1225) 
6.1230421641398589e-05

>  <CONVERGED>  (1225) 
0

>  <ENERGY>  (1225) 
11.671930102385026

$$$$
80177037-97d9-4251-9583-a2fb747585df
     RDKit          3D

 16 17  0  0  0  0  0  0  0  0999 V2000
    0.7414   32.0585   -0.8161 C   0  0  0  0  0  0  0  0  0  0  0  0
   -0.0359   32.0484    0.4770 C   0  0  0  0  0  0  0  0  0  0  0  0
   -0.1098   33.0567    1.1698 O   0  0  0  0  0  0  0  0  0  0  0  0
   -0.5842   30.8073    0.7453 N   0  0  0  0  0  0  0  0  0  0  0  0
   -1.3572   30.4320    1.8650 C   0  0  0  0  0  0  0  0  0  0  0  0
   -1.6886   31.2939    2.9058 C   0  0  0  0  0  0  0  0  0  0  0  0
   -2.4375   30.8268    3.9856 C   0  0  0  0  0  0  0  0  0  0  0  0
   -2.8731   29.4995    4.0251 C   0  0  0  0  0  0  0  0  0  0  0  0
   -2.5978   28.6194    2.9766 C   0  0  0  0  0  0  0  0  0  0  0  0
   -2.9464   27.2701    2.9797 N   0  0  0  0  0  0  0  0  0  0  0  0
   -3.9795   26.7140    3.8530 C   0  0  0  0  0  0  0  0  0  0  0  0
   -5.3662   27.1323    3.3649 C   0  0  0  0  0  0  0  0  0  0  0  0
   -3.7397   25.2206    3.8899 C   0  0  0  0  0  0  0  0  0  0  0  0
   -4.8306   24.1898    4.0648 C   0  0  0  0  0  0  0  0  0  0  0  0
   -4.1115   24.3033    2.7473 C   0  0  0  0  0  0  0  0  0  0  0  0
   -1.8064   29.1019    1.9191 C   0  0  0  0  0  0  0  0  0  0  0  0
  1  2  1  0
  2  3  2  0
  2  4  1  0
  4  5  1  0
  5  6  2  0
  6  7  1  0
  7  8  2  0
  8  9  1  0
  9 10  1  0
 10 11  1  0
 11 12  1  0
 11 13  1  0
 13 14  1  0
 14 15  1  0
  9 16  2  0
 16  5  1  0
 15 13  1  0
M  END
>  <Energy>  (1226) 
12.236462970040106

>  <Energy_Delta>  (1226) 
2.155656384310797

>  <std_smi>  (1226) 
CC(=O)Nc1cccc(NC(C)C2CC2)c1

>  <enum_smi>  (1226) 
CC(=O)Nc1cccc(NC(C)C2CC2)c1

>  <enum_code>  (1226) 
B

>  <o3da_score>  (1226) 
86.663519967721129

>  <o3da_score_rel>  (1226) 
0.34502006484378434

>  <o3da_align>  (1226) 
0.4633005569236191

>  <RMSD>  (1226) 
0.017286495492860637

>  <CONVERGED>  (1226) 
0

>  <ENERGY>  (1226) 
12.244415690321098

$$$$
80177037-97d9-4251-9583-a2fb747585df
     RDKit          3D

 16 17  0  0  0  0  0  0  0  0999 V2000
    0.7544   32.0536   -0.8080 C   0  0  0  0  0  0  0  0  0  0  0  0
   -0.0387   32.0487    0.4754 C   0  0  0  0  0  0  0  0  0  0  0  0
   -0.1312   33.0631    1.1570 O   0  0  0  0  0  0  0  0  0  0  0  0
   -0.5781   30.8049    0.7496 N   0  0  0  0  0  0  0  0  0  0  0  0
   -1.3612   30.4332    1.8634 C   0  0  0  0  0  0  0  0  0  0  0  0
   -1.7139   31.3021    2.8913 C   0  0  0  0  0  0  0  0  0  0  0  0
   -2.4716   30.8384    3.9664 C   0  0  0  0  0  0  0  0  0  0  0  0
   -2.8945   29.5073    4.0140 C   0  0  0  0  0  0  0  0  0  0  0  0
   -2.5975   28.6195    2.9779 C   0  0  0  0  0  0  0  0  0  0  0  0
   -2.9329   27.2669    2.9905 N   0  0  0  0  0  0  0  0  0  0  0  0
   -3.9711   26.7094    3.8566 C   0  0  0  0  0  0  0  0  0  0  0  0
   -5.3557   27.1089    3.3473 C   0  0  0  0  0  0  0  0  0  0  0  0
   -3.7171   25.2188    3.9116 C   0  0  0  0  0  0  0  0  0  0  0  0
   -4.0656   24.2864    2.7739 C   0  0  0  0  0  0  0  0  0  0  0  0
   -4.7999   24.1790    4.0835 C   0  0  0  0  0  0  0  0  0  0  0  0
   -1.7979   29.0992    1.9254 C   0  0  0  0  0  0  0  0  0  0  0  0
  1  2  1  0
  2  3  2  0
  2  4  1  0
  4  5  1  0
  5  6  2  0
  6  7  1  0
  7  8  2  0
  8  9  1  0
  9 10  1  0
 10 11  1  0
 11 12  1  0
 11 13  1  0
 13 14  1  0
 14 15  1  0
  9 16  2  0
 16  5  1  0
 15 13  1  0
M  END
>  <Energy>  (1227) 
12.244415693266507

>  <Energy_Delta>  (1227) 
2.1636091075371979

>  <std_smi>  (1227) 
CC(=O)Nc1cccc(NC(C)C2CC2)c1

>  <enum_smi>  (1227) 
CC(=O)Nc1cccc(NC(C)C2CC2)c1

>  <enum_code>  (1227) 
B

>  <o3da_score>  (1227) 
86.80648198870685

>  <o3da_score_rel>  (1227) 
0.34558921742112098

>  <o3da_align>  (1227) 
0.45966063338370128

>  <RMSD>  (1227) 
7.1357688967016442e-05

>  <CONVERGED>  (1227) 
0

>  <ENERGY>  (1227) 
12.244415690307214

$$$$
80177037-97d9-4251-9583-a2fb747585df
     RDKit          3D

 16 17  0  0  0  0  0  0  0  0999 V2000
    0.4373   22.9763    6.3554 C   0  0  0  0  0  0  0  0  0  0  0  0
   -0.9538   22.9982    5.7717 C   0  0  0  0  0  0  0  0  0  0  0  0
   -1.5198   21.9548    5.4666 O   0  0  0  0  0  0  0  0  0  0  0  0
   -1.4562   24.2829    5.6719 N   0  0  0  0  0  0  0  0  0  0  0  0
   -2.7203   24.6784    5.1825 C   0  0  0  0  0  0  0  0  0  0  0  0
   -3.6813   23.7890    4.7090 C   0  0  0  0  0  0  0  0  0  0  0  0
   -4.9094   24.2667    4.2557 C   0  0  0  0  0  0  0  0  0  0  0  0
   -5.1751   25.6367    4.2639 C   0  0  0  0  0  0  0  0  0  0  0  0
   -4.2198   26.5633    4.7016 C   0  0  0  0  0  0  0  0  0  0  0  0
   -4.5768   27.9066    4.7304 N   0  0  0  0  0  0  0  0  0  0  0  0
   -3.6649   29.0028    5.0314 C   0  0  0  0  0  0  0  0  0  0  0  0
   -4.4883   30.1419    5.6437 C   0  0  0  0  0  0  0  0  0  0  0  0
   -2.9121   29.5114    3.8234 C   0  0  0  0  0  0  0  0  0  0  0  0
   -2.6330   28.6973    2.5794 C   0  0  0  0  0  0  0  0  0  0  0  0
   -3.6047   29.8434    2.5202 C   0  0  0  0  0  0  0  0  0  0  0  0
   -3.0059   26.0564    5.1841 C   0  0  0  0  0  0  0  0  0  0  0  0
  1  2  1  0
  2  3  2  0
  2  4  1  0
  4  5  1  0
  5  6  2  0
  6  7  1  0
  7  8  2  0
  8  9  1  0
  9 10  1  0
 10 11  1  0
 11 12  1  0
 11 13  1  0
 13 14  1  0
 14 15  1  0
  9 16  2  0
 16  5  1  0
 15 13  1  0
M  END
>  <Energy>  (1228) 
12.28880162773093

>  <Energy_Delta>  (1228) 
2.2079950420016203

>  <std_smi>  (1228) 
CC(=O)Nc1cccc(NC(C)C2CC2)c1

>  <enum_smi>  (1228) 
CC(=O)Nc1cccc(NC(C)C2CC2)c1

>  <enum_code>  (1228) 
B

>  <o3da_score>  (1228) 
87.0141588988336

>  <o3da_score_rel>  (1228) 
0.34641600937493472

>  <o3da_align>  (1228) 
0.16578922418269379

>  <RMSD>  (1228) 
0.01720742965219851

>  <CONVERGED>  (1228) 
0

>  <ENERGY>  (1228) 
12.294540840398421

$$$$
80177037-97d9-4251-9583-a2fb747585df
     RDKit          3D

 16 17  0  0  0  0  0  0  0  0999 V2000
   -7.1225   21.4476    3.0591 C   0  0  0  0  0  0  0  0  0  0  0  0
   -5.8446   22.0093    3.6315 C   0  0  0  0  0  0  0  0  0  0  0  0
   -4.9318   21.2653    3.9712 O   0  0  0  0  0  0  0  0  0  0  0  0
   -5.8795   23.3886    3.7285 N   0  0  0  0  0  0  0  0  0  0  0  0
   -4.8710   24.2420    4.2253 C   0  0  0  0  0  0  0  0  0  0  0  0
   -3.6455   23.7978    4.7110 C   0  0  0  0  0  0  0  0  0  0  0  0
   -2.7166   24.7154    5.2009 C   0  0  0  0  0  0  0  0  0  0  0  0
   -3.0016   26.0838    5.1986 C   0  0  0  0  0  0  0  0  0  0  0  0
   -4.2058   26.5680    4.6846 C   0  0  0  0  0  0  0  0  0  0  0  0
   -4.5835   27.9070    4.7001 N   0  0  0  0  0  0  0  0  0  0  0  0
   -3.6893   29.0068    5.0445 C   0  0  0  0  0  0  0  0  0  0  0  0
   -4.5420   30.1328    5.6409 C   0  0  0  0  0  0  0  0  0  0  0  0
   -2.9010   29.5345    3.8675 C   0  0  0  0  0  0  0  0  0  0  0  0
   -3.5535   29.8885    2.5494 C   0  0  0  0  0  0  0  0  0  0  0  0
   -2.5857   28.7400    2.6195 C   0  0  0  0  0  0  0  0  0  0  0  0
   -5.1394   25.6210    4.2267 C   0  0  0  0  0  0  0  0  0  0  0  0
  1  2  1  0
  2  3  2  0
  2  4  1  0
  4  5  1  0
  5  6  2  0
  6  7  1  0
  7  8  2  0
  8  9  1  0
  9 10  1  0
 10 11  1  0
 11 12  1  0
 11 13  1  0
 13 14  1  0
 14 15  1  0
  9 16  2  0
 16  5  1  0
 15 13  1  0
M  END
>  <Energy>  (1229) 
12.295228395344017

>  <Energy_Delta>  (1229) 
2.2144218096147075

>  <std_smi>  (1229) 
CC(=O)Nc1cccc(NC(C)C2CC2)c1

>  <enum_smi>  (1229) 
CC(=O)Nc1cccc(NC(C)C2CC2)c1

>  <enum_code>  (1229) 
B

>  <o3da_score>  (1229) 
86.908946930228524

>  <o3da_score_rel>  (1229) 
0.34599714524105246

>  <o3da_align>  (1229) 
0.17182419579531602

>  <RMSD>  (1229) 
0.017206821659668158

>  <CONVERGED>  (1229) 
0

>  <ENERGY>  (1229) 
12.301937889342744

$$$$
80177037-97d9-4251-9583-a2fb747585df
     RDKit          3D

 16 17  0  0  0  0  0  0  0  0999 V2000
    0.4715   23.0203    6.2472 C   0  0  0  0  0  0  0  0  0  0  0  0
   -0.9152   23.0424    5.6530 C   0  0  0  0  0  0  0  0  0  0  0  0
   -1.4562   22.0044    5.2899 O   0  0  0  0  0  0  0  0  0  0  0  0
   -1.4442   24.3198    5.6137 N   0  0  0  0  0  0  0  0  0  0  0  0
   -2.7142   24.7122    5.1371 C   0  0  0  0  0  0  0  0  0  0  0  0
   -3.6564   23.8264    4.6209 C   0  0  0  0  0  0  0  0  0  0  0  0
   -4.8967   24.2983    4.1946 C   0  0  0  0  0  0  0  0  0  0  0  0
   -5.1924   25.6602    4.2682 C   0  0  0  0  0  0  0  0  0  0  0  0
   -4.2526   26.5851    4.7404 C   0  0  0  0  0  0  0  0  0  0  0  0
   -4.6337   27.9219    4.8406 N   0  0  0  0  0  0  0  0  0  0  0  0
   -3.6781   29.0202    4.9732 C   0  0  0  0  0  0  0  0  0  0  0  0
   -2.9381   29.2407    3.6543 C   0  0  0  0  0  0  0  0  0  0  0  0
   -4.4694   30.2106    5.4684 C   0  0  0  0  0  0  0  0  0  0  0  0
   -4.1349   31.6476    5.1424 C   0  0  0  0  0  0  0  0  0  0  0  0
   -5.3775   31.0194    4.5707 C   0  0  0  0  0  0  0  0  0  0  0  0
   -3.0287   26.0820    5.2027 C   0  0  0  0  0  0  0  0  0  0  0  0
  1  2  1  0
  2  3  2  0
  2  4  1  0
  4  5  1  0
  5  6  2  0
  6  7  1  0
  7  8  2  0
  8  9  1  0
  9 10  1  0
 10 11  1  0
 11 12  1  0
 11 13  1  0
 13 14  1  0
 14 15  1  0
  9 16  2  0
 16  5  1  0
 15 13  1  0
M  END
>  <Energy>  (1230) 
12.297972799730983

>  <Energy_Delta>  (1230) 
2.2171662140016739

>  <std_smi>  (1230) 
CC(=O)Nc1cccc(NC(C)C2CC2)c1

>  <enum_smi>  (1230) 
CC(=O)Nc1cccc(NC(C)C2CC2)c1

>  <enum_code>  (1230) 
B

>  <o3da_score>  (1230) 
80.205695085887314

>  <o3da_score_rel>  (1230) 
0.31931052569386315

>  <o3da_align>  (1230) 
0.13168429878478419

>  <RMSD>  (1230) 
0.017281665982262426

>  <CONVERGED>  (1230) 
0

>  <ENERGY>  (1230) 
12.306211288990513

$$$$
80177037-97d9-4251-9583-a2fb747585df
     RDKit          3D

 16 17  0  0  0  0  0  0  0  0999 V2000
   -0.3564   32.5965    1.3001 C   0  0  0  0  0  0  0  0  0  0  0  0
   -1.0961   32.5323    2.6136 C   0  0  0  0  0  0  0  0  0  0  0  0
   -1.0379   33.4622    3.4097 O   0  0  0  0  0  0  0  0  0  0  0  0
   -1.7736   31.3368    2.7714 N   0  0  0  0  0  0  0  0  0  0  0  0
   -2.5557   30.9287    3.8740 C   0  0  0  0  0  0  0  0  0  0  0  0
   -2.7595   31.7068    5.0106 C   0  0  0  0  0  0  0  0  0  0  0  0
   -3.5279   31.2143    6.0640 C   0  0  0  0  0  0  0  0  0  0  0  0
   -4.1085   29.9482    5.9770 C   0  0  0  0  0  0  0  0  0  0  0  0
   -3.9614   29.1567    4.8310 C   0  0  0  0  0  0  0  0  0  0  0  0
   -4.5200   27.8798    4.8335 N   0  0  0  0  0  0  0  0  0  0  0  0
   -4.7476   27.1019    3.6169 C   0  0  0  0  0  0  0  0  0  0  0  0
   -5.9032   27.6993    2.8146 C   0  0  0  0  0  0  0  0  0  0  0  0
   -4.9524   25.6711    4.0631 C   0  0  0  0  0  0  0  0  0  0  0  0
   -5.8270   24.6731    3.3404 C   0  0  0  0  0  0  0  0  0  0  0  0
   -6.2380   25.1873    4.6940 C   0  0  0  0  0  0  0  0  0  0  0  0
   -3.1498   29.6553    3.8027 C   0  0  0  0  0  0  0  0  0  0  0  0
  1  2  1  0
  2  3  2  0
  2  4  1  0
  4  5  1  0
  5  6  2  0
  6  7  1  0
  7  8  2  0
  8  9  1  0
  9 10  1  0
 10 11  1  0
 11 12  1  0
 11 13  1  0
 13 14  1  0
 14 15  1  0
  9 16  2  0
 16  5  1  0
 15 13  1  0
M  END
>  <Energy>  (1231) 
12.306211289439119

>  <Energy_Delta>  (1231) 
2.2254047037098097

>  <std_smi>  (1231) 
CC(=O)Nc1cccc(NC(C)C2CC2)c1

>  <enum_smi>  (1231) 
CC(=O)Nc1cccc(NC(C)C2CC2)c1

>  <enum_code>  (1231) 
B

>  <o3da_score>  (1231) 
76.95016509234614

>  <o3da_score_rel>  (1231) 
0.30634978777448463

>  <o3da_align>  (1231) 
0.29938187800135391

>  <RMSD>  (1231) 
7.0004177209849269e-05

>  <CONVERGED>  (1231) 
0

>  <ENERGY>  (1231) 
12.306211288966855

$$$$
80177037-97d9-4251-9583-a2fb747585df
     RDKit          3D

 16 17  0  0  0  0  0  0  0  0999 V2000
    0.7245   31.9787   -0.7953 C   0  0  0  0  0  0  0  0  0  0  0  0
   -0.0386   31.9935    0.5062 C   0  0  0  0  0  0  0  0  0  0  0  0
   -0.0294   32.9866    1.2245 O   0  0  0  0  0  0  0  0  0  0  0  0
   -0.6722   30.7891    0.7530 N   0  0  0  0  0  0  0  0  0  0  0  0
   -1.4729   30.4502    1.8648 C   0  0  0  0  0  0  0  0  0  0  0  0
   -1.7731   31.3264    2.9030 C   0  0  0  0  0  0  0  0  0  0  0  0
   -2.5965   30.9108    3.9491 C   0  0  0  0  0  0  0  0  0  0  0  0
   -3.1133   29.6124    3.9723 C   0  0  0  0  0  0  0  0  0  0  0  0
   -2.7956   28.6926    2.9709 C   0  0  0  0  0  0  0  0  0  0  0  0
   -3.3263   27.4033    2.8949 N   0  0  0  0  0  0  0  0  0  0  0  0
   -3.8926   26.7126    4.0548 C   0  0  0  0  0  0  0  0  0  0  0  0
   -4.8013   25.5977    3.5323 C   0  0  0  0  0  0  0  0  0  0  0  0
   -2.7639   26.2464    4.9450 C   0  0  0  0  0  0  0  0  0  0  0  0
   -2.7485   24.9250    5.6793 C   0  0  0  0  0  0  0  0  0  0  0  0
   -1.8070   25.1525    4.5283 C   0  0  0  0  0  0  0  0  0  0  0  0
   -1.9987   29.1481    1.9051 C   0  0  0  0  0  0  0  0  0  0  0  0
  1  2  1  0
  2  3  2  0
  2  4  1  0
  4  5  1  0
  5  6  2  0
  6  7  1  0
  7  8  2  0
  8  9  1  0
  9 10  1  0
 10 11  1  0
 11 12  1  0
 11 13  1  0
 13 14  1  0
 14 15  1  0
  9 16  2  0
 16  5  1  0
 15 13  1  0
M  END
>  <Energy>  (1232) 
12.433000172856453

>  <Energy_Delta>  (1232) 
2.3521935871271431

>  <std_smi>  (1232) 
CC(=O)Nc1cccc(NC(C)C2CC2)c1

>  <enum_smi>  (1232) 
CC(=O)Nc1cccc(NC(C)C2CC2)c1

>  <enum_code>  (1232) 
B

>  <o3da_score>  (1232) 
97.501554478913789

>  <o3da_score_rel>  (1232) 
0.38816785495459022

>  <o3da_align>  (1232) 
0.51004383030293809

>  <RMSD>  (1232) 
6.5926940570112171e-05

>  <CONVERGED>  (1232) 
0

>  <ENERGY>  (1232) 
12.433000172146134

$$$$
80177037-97d9-4251-9583-a2fb747585df
     RDKit          3D

 16 17  0  0  0  0  0  0  0  0999 V2000
    0.3809   22.9378    6.3872 C   0  0  0  0  0  0  0  0  0  0  0  0
   -0.9664   22.9957    5.7106 C   0  0  0  0  0  0  0  0  0  0  0  0
   -1.4880   21.9785    5.2687 O   0  0  0  0  0  0  0  0  0  0  0  0
   -1.4871   24.2770    5.6966 N   0  0  0  0  0  0  0  0  0  0  0  0
   -2.7236   24.6989    5.1609 C   0  0  0  0  0  0  0  0  0  0  0  0
   -3.6356   23.8434    4.5483 C   0  0  0  0  0  0  0  0  0  0  0  0
   -4.8457   24.3419    4.0693 C   0  0  0  0  0  0  0  0  0  0  0  0
   -5.1401   25.7010    4.1863 C   0  0  0  0  0  0  0  0  0  0  0  0
   -4.2267   26.5982    4.7548 C   0  0  0  0  0  0  0  0  0  0  0  0
   -4.6115   27.9335    4.8929 N   0  0  0  0  0  0  0  0  0  0  0  0
   -3.6495   29.0180    5.0920 C   0  0  0  0  0  0  0  0  0  0  0  0
   -4.4116   30.2169    5.6604 C   0  0  0  0  0  0  0  0  0  0  0  0
   -2.9316   29.2816    3.7887 C   0  0  0  0  0  0  0  0  0  0  0  0
   -2.5524   30.6568    3.2880 C   0  0  0  0  0  0  0  0  0  0  0  0
   -3.6330   29.8775    2.5892 C   0  0  0  0  0  0  0  0  0  0  0  0
   -3.0362   26.0665    5.2691 C   0  0  0  0  0  0  0  0  0  0  0  0
  1  2  1  0
  2  3  2  0
  2  4  1  0
  4  5  1  0
  5  6  2  0
  6  7  1  0
  7  8  2  0
  8  9  1  0
  9 10  1  0
 10 11  1  0
 11 12  1  0
 11 13  1  0
 13 14  1  0
 14 15  1  0
  9 16  2  0
 16  5  1  0
 15 13  1  0
M  END
>  <Energy>  (1233) 
12.475661168115185

>  <Energy_Delta>  (1233) 
2.3948545823858751

>  <std_smi>  (1233) 
CC(=O)Nc1cccc(NC(C)C2CC2)c1

>  <enum_smi>  (1233) 
CC(=O)Nc1cccc(NC(C)C2CC2)c1

>  <enum_code>  (1233) 
B

>  <o3da_score>  (1233) 
85.477778009848237

>  <o3da_score_rel>  (1233) 
0.34029945382607268

>  <o3da_align>  (1233) 
0.23946512979832379

>  <RMSD>  (1233) 
0.017257020862466846

>  <CONVERGED>  (1233) 
0

>  <ENERGY>  (1233) 
12.483806017358091

$$$$
80177037-97d9-4251-9583-a2fb747585df
     RDKit          3D

 16 17  0  0  0  0  0  0  0  0999 V2000
   -7.7969   22.3783    2.6852 C   0  0  0  0  0  0  0  0  0  0  0  0
   -7.1149   23.6432    3.1450 C   0  0  0  0  0  0  0  0  0  0  0  0
   -7.6896   24.7234    3.0729 O   0  0  0  0  0  0  0  0  0  0  0  0
   -5.8525   23.3995    3.6549 N   0  0  0  0  0  0  0  0  0  0  0  0
   -4.9312   24.3418    4.1606 C   0  0  0  0  0  0  0  0  0  0  0  0
   -3.7332   23.8448    4.6799 C   0  0  0  0  0  0  0  0  0  0  0  0
   -2.7693   24.7169    5.1816 C   0  0  0  0  0  0  0  0  0  0  0  0
   -2.9999   26.0943    5.1777 C   0  0  0  0  0  0  0  0  0  0  0  0
   -4.2009   26.6228    4.6970 C   0  0  0  0  0  0  0  0  0  0  0  0
   -4.4622   27.9900    4.6045 N   0  0  0  0  0  0  0  0  0  0  0  0
   -3.7930   28.9859    5.4391 C   0  0  0  0  0  0  0  0  0  0  0  0
   -4.2924   28.8918    6.8805 C   0  0  0  0  0  0  0  0  0  0  0  0
   -4.0247   30.3225    4.7693 C   0  0  0  0  0  0  0  0  0  0  0  0
   -4.1421   31.6353    5.5086 C   0  0  0  0  0  0  0  0  0  0  0  0
   -5.3500   31.0471    4.8301 C   0  0  0  0  0  0  0  0  0  0  0  0
   -5.1427   25.7248    4.1600 C   0  0  0  0  0  0  0  0  0  0  0  0
  1  2  1  0
  2  3  2  0
  2  4  1  0
  4  5  1  0
  5  6  2  0
  6  7  1  0
  7  8  2  0
  8  9  1  0
  9 10  1  0
 10 11  1  0
 11 12  1  0
 11 13  1  0
 13 14  1  0
 14 15  1  0
  9 16  2  0
 16  5  1  0
 15 13  1  0
M  END
>  <Energy>  (1234) 
12.500539324253236

>  <Energy_Delta>  (1234) 
2.4197327385239262

>  <std_smi>  (1234) 
CC(=O)Nc1cccc(NC(C)C2CC2)c1

>  <enum_smi>  (1234) 
CC(=O)Nc1cccc(NC(C)C2CC2)c1

>  <enum_code>  (1234) 
B

>  <o3da_score>  (1234) 
81.507163873796344

>  <o3da_score_rel>  (1234) 
0.32449186203658015

>  <o3da_align>  (1234) 
0.21854465392264594

>  <RMSD>  (1234) 
5.3592763207348317e-05

>  <CONVERGED>  (1234) 
0

>  <ENERGY>  (1234) 
12.500539323592877

$$$$
80177037-97d9-4251-9583-a2fb747585df
     RDKit          3D

 16 17  0  0  0  0  0  0  0  0999 V2000
    0.8891   24.1925    6.2334 C   0  0  0  0  0  0  0  0  0  0  0  0
   -0.3186   25.0530    5.9561 C   0  0  0  0  0  0  0  0  0  0  0  0
   -0.2964   26.2561    6.1881 O   0  0  0  0  0  0  0  0  0  0  0  0
   -1.3764   24.3151    5.4558 N   0  0  0  0  0  0  0  0  0  0  0  0
   -2.6615   24.7804    5.1030 C   0  0  0  0  0  0  0  0  0  0  0  0
   -3.5549   23.8433    4.5778 C   0  0  0  0  0  0  0  0  0  0  0  0
   -4.8459   24.2266    4.2205 C   0  0  0  0  0  0  0  0  0  0  0  0
   -5.2515   25.5540    4.3753 C   0  0  0  0  0  0  0  0  0  0  0  0
   -4.3726   26.5238    4.8650 C   0  0  0  0  0  0  0  0  0  0  0  0
   -4.7382   27.8484    5.1045 N   0  0  0  0  0  0  0  0  0  0  0  0
   -5.8508   28.5032    4.4194 C   0  0  0  0  0  0  0  0  0  0  0  0
   -5.4910   28.7684    2.9577 C   0  0  0  0  0  0  0  0  0  0  0  0
   -6.1782   29.7379    5.2302 C   0  0  0  0  0  0  0  0  0  0  0  0
   -5.3236   30.9844    5.2004 C   0  0  0  0  0  0  0  0  0  0  0  0
   -6.7219   31.0205    4.6445 C   0  0  0  0  0  0  0  0  0  0  0  0
   -3.0864   26.1046    5.2550 C   0  0  0  0  0  0  0  0  0  0  0  0
  1  2  1  0
  2  3  2  0
  2  4  1  0
  4  5  1  0
  5  6  2  0
  6  7  1  0
  7  8  2  0
  8  9  1  0
  9 10  1  0
 10 11  1  0
 11 12  1  0
 11 13  1  0
 13 14  1  0
 14 15  1  0
  9 16  2  0
 16  5  1  0
 15 13  1  0
M  END
>  <Energy>  (1235) 
12.500539325678496

>  <Energy_Delta>  (1235) 
2.4197327399491861

>  <std_smi>  (1235) 
CC(=O)Nc1cccc(NC(C)C2CC2)c1

>  <enum_smi>  (1235) 
CC(=O)Nc1cccc(NC(C)C2CC2)c1

>  <enum_code>  (1235) 
B

>  <o3da_score>  (1235) 
81.578859204336567

>  <o3da_score_rel>  (1235) 
0.32477729156449681

>  <o3da_align>  (1235) 
0.21441028346046914

>  <RMSD>  (1235) 
0.015088692433551223

>  <CONVERGED>  (1235) 
0

>  <ENERGY>  (1235) 
12.531334097016392

$$$$
80177037-97d9-4251-9583-a2fb747585df
     RDKit          3D

 16 17  0  0  0  0  0  0  0  0999 V2000
    0.8075   24.0053    6.3784 C   0  0  0  0  0  0  0  0  0  0  0  0
   -0.3414   24.9250    6.0450 C   0  0  0  0  0  0  0  0  0  0  0  0
   -0.2417   26.1344    6.2164 O   0  0  0  0  0  0  0  0  0  0  0  0
   -1.4452   24.2310    5.5828 N   0  0  0  0  0  0  0  0  0  0  0  0
   -2.6906   24.7583    5.1761 C   0  0  0  0  0  0  0  0  0  0  0  0
   -3.6631   23.8403    4.7683 C   0  0  0  0  0  0  0  0  0  0  0  0
   -4.9119   24.2832    4.3413 C   0  0  0  0  0  0  0  0  0  0  0  0
   -5.1966   25.6484    4.3291 C   0  0  0  0  0  0  0  0  0  0  0  0
   -4.2563   26.5958    4.7584 C   0  0  0  0  0  0  0  0  0  0  0  0
   -4.5977   27.9421    4.6581 N   0  0  0  0  0  0  0  0  0  0  0  0
   -3.7737   29.0329    5.1691 C   0  0  0  0  0  0  0  0  0  0  0  0
   -4.0552   30.2715    4.3098 C   0  0  0  0  0  0  0  0  0  0  0  0
   -4.0326   29.3544    6.6234 C   0  0  0  0  0  0  0  0  0  0  0  0
   -5.4266   29.5731    7.1691 C   0  0  0  0  0  0  0  0  0  0  0  0
   -4.6229   28.3876    7.6260 C   0  0  0  0  0  0  0  0  0  0  0  0
   -2.9945   26.1260    5.1535 C   0  0  0  0  0  0  0  0  0  0  0  0
  1  2  1  0
  2  3  2  0
  2  4  1  0
  4  5  1  0
  5  6  2  0
  6  7  1  0
  7  8  2  0
  8  9  1  0
  9 10  1  0
 10 11  1  0
 11 12  1  0
 11 13  1  0
 13 14  1  0
 14 15  1  0
  9 16  2  0
 16  5  1  0
 15 13  1  0
M  END
>  <Energy>  (1236) 
12.523655054273327

>  <Energy_Delta>  (1236) 
2.4428484685440175

>  <std_smi>  (1236) 
CC(=O)Nc1cccc(NC(C)C2CC2)c1

>  <enum_smi>  (1236) 
CC(=O)Nc1cccc(NC(C)C2CC2)c1

>  <enum_code>  (1236) 
B

>  <o3da_score>  (1236) 
82.780504291220069

>  <o3da_score_rel>  (1236) 
0.32956121524945886

>  <o3da_align>  (1236) 
0.15034267946836213

>  <RMSD>  (1236) 
0.01607040821364954

>  <CONVERGED>  (1236) 
0

>  <ENERGY>  (1236) 
12.514973506660276

$$$$
80177037-97d9-4251-9583-a2fb747585df
     RDKit          3D

 16 17  0  0  0  0  0  0  0  0999 V2000
   -7.7556   22.3432    2.6346 C   0  0  0  0  0  0  0  0  0  0  0  0
   -7.0644   23.6188    3.0485 C   0  0  0  0  0  0  0  0  0  0  0  0
   -7.5957   24.7071    2.8616 O   0  0  0  0  0  0  0  0  0  0  0  0
   -5.8403   23.3746    3.6449 N   0  0  0  0  0  0  0  0  0  0  0  0
   -4.9321   24.3202    4.1675 C   0  0  0  0  0  0  0  0  0  0  0  0
   -3.7343   23.8290    4.6921 C   0  0  0  0  0  0  0  0  0  0  0  0
   -2.7948   24.7030    5.2346 C   0  0  0  0  0  0  0  0  0  0  0  0
   -3.0414   26.0778    5.2505 C   0  0  0  0  0  0  0  0  0  0  0  0
   -4.2157   26.6063    4.7091 C   0  0  0  0  0  0  0  0  0  0  0  0
   -4.5532   27.9555    4.7452 N   0  0  0  0  0  0  0  0  0  0  0  0
   -3.6247   29.0330    5.0609 C   0  0  0  0  0  0  0  0  0  0  0  0
   -4.4319   30.1776    5.6844 C   0  0  0  0  0  0  0  0  0  0  0  0
   -2.8622   29.5442    3.8597 C   0  0  0  0  0  0  0  0  0  0  0  0
   -3.5449   29.8927    2.5557 C   0  0  0  0  0  0  0  0  0  0  0  0
   -2.5863   28.7355    2.6117 C   0  0  0  0  0  0  0  0  0  0  0  0
   -5.1632   25.6997    4.1952 C   0  0  0  0  0  0  0  0  0  0  0  0
  1  2  1  0
  2  3  2  0
  2  4  1  0
  4  5  1  0
  5  6  2  0
  6  7  1  0
  7  8  2  0
  8  9  1  0
  9 10  1  0
 10 11  1  0
 11 12  1  0
 11 13  1  0
 13 14  1  0
 14 15  1  0
  9 16  2  0
 16  5  1  0
 15 13  1  0
M  END
>  <Energy>  (1237) 
12.569678902942991

>  <Energy_Delta>  (1237) 
2.4888723172136817

>  <std_smi>  (1237) 
CC(=O)Nc1cccc(NC(C)C2CC2)c1

>  <enum_smi>  (1237) 
CC(=O)Nc1cccc(NC(C)C2CC2)c1

>  <enum_code>  (1237) 
B

>  <o3da_score>  (1237) 
95.63325644244253

>  <o3da_score_rel>  (1237) 
0.38072988901539323

>  <o3da_align>  (1237) 
0.1862666593576322

>  <RMSD>  (1237) 
0.015975067899450759

>  <CONVERGED>  (1237) 
0

>  <ENERGY>  (1237) 
12.59758230276173

$$$$
80177037-97d9-4251-9583-a2fb747585df
     RDKit          3D

 16 17  0  0  0  0  0  0  0  0999 V2000
   -7.0831   21.3643    3.2089 C   0  0  0  0  0  0  0  0  0  0  0  0
   -5.7923   21.9673    3.7054 C   0  0  0  0  0  0  0  0  0  0  0  0
   -4.8209   21.2581    3.9410 O   0  0  0  0  0  0  0  0  0  0  0  0
   -5.8853   23.3381    3.8648 N   0  0  0  0  0  0  0  0  0  0  0  0
   -4.8832   24.2213    4.3207 C   0  0  0  0  0  0  0  0  0  0  0  0
   -3.6047   23.8204    4.6956 C   0  0  0  0  0  0  0  0  0  0  0  0
   -2.6868   24.7628    5.1585 C   0  0  0  0  0  0  0  0  0  0  0  0
   -3.0352   26.1141    5.2354 C   0  0  0  0  0  0  0  0  0  0  0  0
   -4.2935   26.5580    4.8241 C   0  0  0  0  0  0  0  0  0  0  0  0
   -4.7308   27.8782    4.9318 N   0  0  0  0  0  0  0  0  0  0  0  0
   -3.8143   29.0057    5.0940 C   0  0  0  0  0  0  0  0  0  0  0  0
   -3.1114   29.3132    3.7703 C   0  0  0  0  0  0  0  0  0  0  0  0
   -4.5486   30.2406    5.5793 C   0  0  0  0  0  0  0  0  0  0  0  0
   -5.7905   30.1623    6.4372 C   0  0  0  0  0  0  0  0  0  0  0  0
   -5.8845   30.6874    5.0292 C   0  0  0  0  0  0  0  0  0  0  0  0
   -5.2154   25.5840    4.4007 C   0  0  0  0  0  0  0  0  0  0  0  0
  1  2  1  0
  2  3  2  0
  2  4  1  0
  4  5  1  0
  5  6  2  0
  6  7  1  0
  7  8  2  0
  8  9  1  0
  9 10  1  0
 10 11  1  0
 11 12  1  0
 11 13  1  0
 13 14  1  0
 14 15  1  0
  9 16  2  0
 16  5  1  0
 15 13  1  0
M  END
>  <Energy>  (1238) 
12.571233181595579

>  <Energy_Delta>  (1238) 
2.4904265958662695

>  <std_smi>  (1238) 
CC(=O)Nc1cccc(NC(C)C2CC2)c1

>  <enum_smi>  (1238) 
CC(=O)Nc1cccc(NC(C)C2CC2)c1

>  <enum_code>  (1238) 
B

>  <o3da_score>  (1238) 
77.862028747837471

>  <o3da_score_rel>  (1238) 
0.30998004947702668

>  <o3da_align>  (1238) 
0.28493264468003554

>  <RMSD>  (1238) 
0.23062487350834804

>  <CONVERGED>  (1238) 
0

>  <ENERGY>  (1238) 
11.4261796796798

$$$$
80177037-97d9-4251-9583-a2fb747585df
     RDKit          3D

 16 17  0  0  0  0  0  0  0  0999 V2000
   -7.1045   21.4328    3.0960 C   0  0  0  0  0  0  0  0  0  0  0  0
   -5.8304   22.0045    3.6671 C   0  0  0  0  0  0  0  0  0  0  0  0
   -4.9346   21.2654    4.0588 O   0  0  0  0  0  0  0  0  0  0  0  0
   -5.8498   23.3869    3.7047 N   0  0  0  0  0  0  0  0  0  0  0  0
   -4.8328   24.2493    4.1675 C   0  0  0  0  0  0  0  0  0  0  0  0
   -3.6019   23.8131    4.6473 C   0  0  0  0  0  0  0  0  0  0  0  0
   -2.6460   24.7415    5.0589 C   0  0  0  0  0  0  0  0  0  0  0  0
   -2.9191   26.1112    5.0072 C   0  0  0  0  0  0  0  0  0  0  0  0
   -4.1598   26.5824    4.5735 C   0  0  0  0  0  0  0  0  0  0  0  0
   -4.4787   27.9333    4.4356 N   0  0  0  0  0  0  0  0  0  0  0  0
   -3.7278   28.9965    5.1015 C   0  0  0  0  0  0  0  0  0  0  0  0
   -4.0704   29.0349    6.5921 C   0  0  0  0  0  0  0  0  0  0  0  0
   -4.0222   30.3465    4.4767 C   0  0  0  0  0  0  0  0  0  0  0  0
   -4.4012   30.5027    3.0218 C   0  0  0  0  0  0  0  0  0  0  0  0
   -5.4121   30.8048    4.0960 C   0  0  0  0  0  0  0  0  0  0  0  0
   -5.0918   25.6294    4.1248 C   0  0  0  0  0  0  0  0  0  0  0  0
  1  2  1  0
  2  3  2  0
  2  4  1  0
  4  5  1  0
  5  6  2  0
  6  7  1  0
  7  8  2  0
  8  9  1  0
  9 10  1  0
 10 11  1  0
 11 12  1  0
 11 13  1  0
 13 14  1  0
 14 15  1  0
  9 16  2  0
 16  5  1  0
 15 13  1  0
M  END
>  <Energy>  (1239) 
12.578474377829195

>  <Energy_Delta>  (1239) 
2.497667792099886

>  <std_smi>  (1239) 
CC(=O)Nc1cccc(NC(C)C2CC2)c1

>  <enum_smi>  (1239) 
CC(=O)Nc1cccc(NC(C)C2CC2)c1

>  <enum_code>  (1239) 
B

>  <o3da_score>  (1239) 
74.678877310671709

>  <o3da_score_rel>  (1239) 
0.29730746110688461

>  <o3da_align>  (1239) 
0.043586723304313076

>  <RMSD>  (1239) 
0.23069021379267363

>  <CONVERGED>  (1239) 
0

>  <ENERGY>  (1239) 
11.41785418518452

$$$$
80177037-97d9-4251-9583-a2fb747585df
     RDKit          3D

 16 17  0  0  0  0  0  0  0  0999 V2000
   -4.3652   30.3689    4.8576 C   0  0  0  0  0  0  0  0  0  0  0  0
   -3.7509   29.0292    5.1802 C   0  0  0  0  0  0  0  0  0  0  0  0
   -2.7353   28.9553    5.8623 O   0  0  0  0  0  0  0  0  0  0  0  0
   -4.4495   27.9839    4.6036 N   0  0  0  0  0  0  0  0  0  0  0  0
   -4.1570   26.6047    4.6826 C   0  0  0  0  0  0  0  0  0  0  0  0
   -3.0717   26.0808    5.3800 C   0  0  0  0  0  0  0  0  0  0  0  0
   -2.8442   24.7057    5.3849 C   0  0  0  0  0  0  0  0  0  0  0  0
   -3.7111   23.8486    4.7054 C   0  0  0  0  0  0  0  0  0  0  0  0
   -4.8373   24.3366    4.0307 C   0  0  0  0  0  0  0  0  0  0  0  0
   -5.6288   23.4318    3.3256 N   0  0  0  0  0  0  0  0  0  0  0  0
   -6.9901   23.7312    2.8849 C   0  0  0  0  0  0  0  0  0  0  0  0
   -7.9399   23.7612    4.0819 C   0  0  0  0  0  0  0  0  0  0  0  0
   -7.3271   22.7031    1.8277 C   0  0  0  0  0  0  0  0  0  0  0  0
   -7.6779   21.2713    2.1620 C   0  0  0  0  0  0  0  0  0  0  0  0
   -8.7201   22.1792    1.5662 C   0  0  0  0  0  0  0  0  0  0  0  0
   -5.0215   25.7259    4.0044 C   0  0  0  0  0  0  0  0  0  0  0  0
  1  2  1  0
  2  3  2  0
  2  4  1  0
  4  5  1  0
  5  6  2  0
  6  7  1  0
  7  8  2  0
  8  9  1  0
  9 10  1  0
 10 11  1  0
 11 12  1  0
 11 13  1  0
 13 14  1  0
 14 15  1  0
  9 16  2  0
 16  5  1  0
 15 13  1  0
M  END
>  <Energy>  (1240) 
13.257906805893899

>  <Energy_Delta>  (1240) 
3.1771002201645899

>  <std_smi>  (1240) 
CC(=O)Nc1cccc(NC(C)C2CC2)c1

>  <enum_smi>  (1240) 
CC(=O)Nc1cccc(NC(C)C2CC2)c1

>  <enum_code>  (1240) 
B

>  <o3da_score>  (1240) 
79.982036129342191

>  <o3da_score_rel>  (1240) 
0.31842010689113237

>  <o3da_align>  (1240) 
0.12724102922786976

>  <RMSD>  (1240) 
0.2603289653541786

>  <CONVERGED>  (1240) 
0

>  <ENERGY>  (1240) 
12.306211288956833

$$$$
80177037-97d9-4251-9583-a2fb747585df
     RDKit          3D

 16 17  0  0  0  0  0  0  0  0999 V2000
    0.1560   23.0006    6.6303 C   0  0  0  0  0  0  0  0  0  0  0  0
   -0.9929   23.0826    5.6557 C   0  0  0  0  0  0  0  0  0  0  0  0
   -1.2918   22.1188    4.9600 O   0  0  0  0  0  0  0  0  0  0  0  0
   -1.5849   24.3326    5.6517 N   0  0  0  0  0  0  0  0  0  0  0  0
   -2.6818   24.7638    4.8742 C   0  0  0  0  0  0  0  0  0  0  0  0
   -3.3707   23.9449    3.9834 C   0  0  0  0  0  0  0  0  0  0  0  0
   -4.4629   24.4466    3.2775 C   0  0  0  0  0  0  0  0  0  0  0  0
   -4.8586   25.7742    3.4472 C   0  0  0  0  0  0  0  0  0  0  0  0
   -4.1594   26.6390    4.2989 C   0  0  0  0  0  0  0  0  0  0  0  0
   -4.6384   27.9406    4.4655 N   0  0  0  0  0  0  0  0  0  0  0  0
   -3.7665   29.0444    4.8657 C   0  0  0  0  0  0  0  0  0  0  0  0
   -4.6517   30.1688    5.4107 C   0  0  0  0  0  0  0  0  0  0  0  0
   -2.9924   29.5344    3.6673 C   0  0  0  0  0  0  0  0  0  0  0  0
   -1.6503   28.9449    3.3062 C   0  0  0  0  0  0  0  0  0  0  0  0
   -1.7302   30.3430    3.8496 C   0  0  0  0  0  0  0  0  0  0  0  0
   -3.0943   26.0993    5.0327 C   0  0  0  0  0  0  0  0  0  0  0  0
  1  2  1  0
  2  3  2  0
  2  4  1  0
  4  5  1  0
  5  6  2  0
  6  7  1  0
  7  8  2  0
  8  9  1  0
  9 10  1  0
 10 11  1  0
 11 12  1  0
 11 13  1  0
 13 14  1  0
 14 15  1  0
  9 16  2  0
 16  5  1  0
 15 13  1  0
M  END
>  <Energy>  (1241) 
14.233474456349445

>  <Energy_Delta>  (1241) 
4.1526678706201352

>  <std_smi>  (1241) 
CC(=O)Nc1cccc(NC(C)C2CC2)c1

>  <enum_smi>  (1241) 
CC(=O)Nc1cccc(NC(C)C2CC2)c1

>  <enum_code>  (1241) 
B

>  <o3da_score>  (1241) 
70.365165429870189

>  <o3da_score_rel>  (1241) 
0.28013394734485553

>  <o3da_align>  (1241) 
0.61449209592378284

>  <RMSD>  (1241) 
0.7346981365430244

>  <CONVERGED>  (1241) 
0

>  <ENERGY>  (1241) 
10.422357250712709

$$$$
80177037-97d9-4251-9583-a2fb747585df
     RDKit          3D

 16 17  0  0  0  0  0  0  0  0999 V2000
    0.6003   32.0166   -0.9550 C   0  0  0  0  0  0  0  0  0  0  0  0
   -0.2127   32.0474    0.3156 C   0  0  0  0  0  0  0  0  0  0  0  0
   -0.4793   33.1118    0.8614 O   0  0  0  0  0  0  0  0  0  0  0  0
   -0.5567   30.7783    0.7446 N   0  0  0  0  0  0  0  0  0  0  0  0
   -1.2985   30.4301    1.8938 C   0  0  0  0  0  0  0  0  0  0  0  0
   -1.8083   31.3542    2.8002 C   0  0  0  0  0  0  0  0  0  0  0  0
   -2.5093   30.9150    3.9229 C   0  0  0  0  0  0  0  0  0  0  0  0
   -2.7190   29.5502    4.1393 C   0  0  0  0  0  0  0  0  0  0  0  0
   -2.2623   28.5976    3.2263 C   0  0  0  0  0  0  0  0  0  0  0  0
   -2.3785   27.2182    3.4097 N   0  0  0  0  0  0  0  0  0  0  0  0
   -3.3644   26.6216    4.3125 C   0  0  0  0  0  0  0  0  0  0  0  0
   -2.8897   25.2058    4.6469 C   0  0  0  0  0  0  0  0  0  0  0  0
   -4.7280   26.6976    3.6657 C   0  0  0  0  0  0  0  0  0  0  0  0
   -5.0860   25.8872    2.4405 C   0  0  0  0  0  0  0  0  0  0  0  0
   -5.7723   25.6075    3.7497 C   0  0  0  0  0  0  0  0  0  0  0  0
   -1.5215   29.0623    2.1246 C   0  0  0  0  0  0  0  0  0  0  0  0
  1  2  1  0
  2  3  2  0
  2  4  1  0
  4  5  1  0
  5  6  2  0
  6  7  1  0
  7  8  2  0
  8  9  1  0
  9 10  1  0
 10 11  1  0
 11 12  1  0
 11 13  1  0
 13 14  1  0
 14 15  1  0
  9 16  2  0
 16  5  1  0
 15 13  1  0
M  END
>  <Energy>  (1242) 
14.312474209306227

>  <Energy_Delta>  (1242) 
4.2316676235769179

>  <std_smi>  (1242) 
CC(=O)Nc1cccc(NC(C)C2CC2)c1

>  <enum_smi>  (1242) 
CC(=O)Nc1cccc(NC(C)C2CC2)c1

>  <enum_code>  (1242) 
B

>  <o3da_score>  (1242) 
85.039676991455991

>  <o3da_score_rel>  (1242) 
0.33855531001758071

>  <o3da_align>  (1242) 
0.53876329475777918

>  <RMSD>  (1242) 
0.37246859431345797

>  <CONVERGED>  (1242) 
0

>  <ENERGY>  (1242) 
12.440702592052828

$$$$
80177037-97d9-4251-9583-a2fb747585df
     RDKit          3D

 16 17  0  0  0  0  0  0  0  0999 V2000
   -7.1715   21.3955    3.3333 C   0  0  0  0  0  0  0  0  0  0  0  0
   -5.8627   21.9836    3.7997 C   0  0  0  0  0  0  0  0  0  0  0  0
   -4.9160   21.2573    4.0798 O   0  0  0  0  0  0  0  0  0  0  0  0
   -5.9117   23.3633    3.8844 N   0  0  0  0  0  0  0  0  0  0  0  0
   -4.8765   24.2380    4.2785 C   0  0  0  0  0  0  0  0  0  0  0  0
   -3.5979   23.8213    4.6294 C   0  0  0  0  0  0  0  0  0  0  0  0
   -2.6343   24.7644    4.9825 C   0  0  0  0  0  0  0  0  0  0  0  0
   -2.9451   26.1283    4.9982 C   0  0  0  0  0  0  0  0  0  0  0  0
   -4.2256   26.5837    4.6909 C   0  0  0  0  0  0  0  0  0  0  0  0
   -4.6066   27.9172    4.6203 N   0  0  0  0  0  0  0  0  0  0  0  0
   -3.8751   29.0920    5.0941 C   0  0  0  0  0  0  0  0  0  0  0  0
   -2.6439   29.4068    4.2533 C   0  0  0  0  0  0  0  0  0  0  0  0
   -3.5901   29.0188    6.5701 C   0  0  0  0  0  0  0  0  0  0  0  0
   -4.7114   29.1466    7.5736 C   0  0  0  0  0  0  0  0  0  0  0  0
   -3.7006   30.2504    7.4373 C   0  0  0  0  0  0  0  0  0  0  0  0
   -5.1696   25.6123    4.3034 C   0  0  0  0  0  0  0  0  0  0  0  0
  1  2  1  0
  2  3  2  0
  2  4  1  0
  4  5  1  0
  5  6  2  0
  6  7  1  0
  7  8  2  0
  8  9  1  0
  9 10  1  0
 10 11  1  0
 11 12  1  0
 11 13  1  0
 13 14  1  0
 14 15  1  0
  9 16  2  0
 16  5  1  0
 15 13  1  0
M  END
>  <Energy>  (1243) 
14.889411020135395

>  <Energy_Delta>  (1243) 
4.8086044344060852

>  <std_smi>  (1243) 
CC(=O)Nc1cccc(NC(C)C2CC2)c1

>  <enum_smi>  (1243) 
CC(=O)Nc1cccc(NC(C)C2CC2)c1

>  <enum_code>  (1243) 
B

>  <o3da_score>  (1243) 
77.319947701430536

>  <o3da_score_rel>  (1243) 
0.30782194606913871

>  <o3da_align>  (1243) 
0.3306765776838721

>  <RMSD>  (1243) 
6.4394205632636102e-05

>  <CONVERGED>  (1243) 
0

>  <ENERGY>  (1243) 
14.889411020100564

$$$$
80177037-97d9-4251-9583-a2fb747585df
     RDKit          3D

 16 17  0  0  0  0  0  0  0  0999 V2000
   -7.1715   21.3955    3.3333 C   0  0  0  0  0  0  0  0  0  0  0  0
   -5.8627   21.9836    3.7998 C   0  0  0  0  0  0  0  0  0  0  0  0
   -4.9160   21.2573    4.0798 O   0  0  0  0  0  0  0  0  0  0  0  0
   -5.9117   23.3632    3.8844 N   0  0  0  0  0  0  0  0  0  0  0  0
   -4.8765   24.2380    4.2785 C   0  0  0  0  0  0  0  0  0  0  0  0
   -3.5979   23.8213    4.6294 C   0  0  0  0  0  0  0  0  0  0  0  0
   -2.6343   24.7644    4.9825 C   0  0  0  0  0  0  0  0  0  0  0  0
   -2.9451   26.1283    4.9982 C   0  0  0  0  0  0  0  0  0  0  0  0
   -4.2256   26.5837    4.6909 C   0  0  0  0  0  0  0  0  0  0  0  0
   -4.6066   27.9172    4.6204 N   0  0  0  0  0  0  0  0  0  0  0  0
   -3.8751   29.0920    5.0941 C   0  0  0  0  0  0  0  0  0  0  0  0
   -2.6439   29.4068    4.2533 C   0  0  0  0  0  0  0  0  0  0  0  0
   -3.5901   29.0188    6.5701 C   0  0  0  0  0  0  0  0  0  0  0  0
   -3.7006   30.2504    7.4373 C   0  0  0  0  0  0  0  0  0  0  0  0
   -4.7114   29.1465    7.5736 C   0  0  0  0  0  0  0  0  0  0  0  0
   -5.1696   25.6123    4.3035 C   0  0  0  0  0  0  0  0  0  0  0  0
  1  2  1  0
  2  3  2  0
  2  4  1  0
  4  5  1  0
  5  6  2  0
  6  7  1  0
  7  8  2  0
  8  9  1  0
  9 10  1  0
 10 11  1  0
 11 12  1  0
 11 13  1  0
 13 14  1  0
 14 15  1  0
  9 16  2  0
 16  5  1  0
 15 13  1  0
M  END
>  <Energy>  (1244) 
14.889411023291579

>  <Energy_Delta>  (1244) 
4.8086044375622699

>  <std_smi>  (1244) 
CC(=O)Nc1cccc(NC(C)C2CC2)c1

>  <enum_smi>  (1244) 
CC(=O)Nc1cccc(NC(C)C2CC2)c1

>  <enum_code>  (1244) 
B

>  <o3da_score>  (1244) 
77.319777736435285

>  <o3da_score_rel>  (1244) 
0.30782126941379739

>  <o3da_align>  (1244) 
0.33068175194890659

>  <RMSD>  (1244) 
5.6407034377946762e-05

>  <CONVERGED>  (1244) 
0

>  <ENERGY>  (1244) 
14.889411019987538

$$$$
80177037-97d9-4251-9583-a2fb747585df
     RDKit          3D

 16 17  0  0  0  0  0  0  0  0999 V2000
   -7.1367   21.4418    3.0544 C   0  0  0  0  0  0  0  0  0  0  0  0
   -5.8640   21.9940    3.6474 C   0  0  0  0  0  0  0  0  0  0  0  0
   -4.9654   21.2428    4.0086 O   0  0  0  0  0  0  0  0  0  0  0  0
   -5.8865   23.3741    3.7358 N   0  0  0  0  0  0  0  0  0  0  0  0
   -4.8786   24.2200    4.2463 C   0  0  0  0  0  0  0  0  0  0  0  0
   -3.6681   23.7667    4.7571 C   0  0  0  0  0  0  0  0  0  0  0  0
   -2.7428   24.6798    5.2597 C   0  0  0  0  0  0  0  0  0  0  0  0
   -3.0157   26.0518    5.2440 C   0  0  0  0  0  0  0  0  0  0  0  0
   -4.1999   26.5494    4.7041 C   0  0  0  0  0  0  0  0  0  0  0  0
   -4.5810   27.8846    4.7019 N   0  0  0  0  0  0  0  0  0  0  0  0
   -3.7603   29.0589    4.9974 C   0  0  0  0  0  0  0  0  0  0  0  0
   -3.3925   29.1735    6.4717 C   0  0  0  0  0  0  0  0  0  0  0  0
   -2.5761   29.1633    4.0745 C   0  0  0  0  0  0  0  0  0  0  0  0
   -2.1355   30.5040    3.5365 C   0  0  0  0  0  0  0  0  0  0  0  0
   -2.7701   29.5004    2.6152 C   0  0  0  0  0  0  0  0  0  0  0  0
   -5.1320   25.6023    4.2358 C   0  0  0  0  0  0  0  0  0  0  0  0
  1  2  1  0
  2  3  2  0
  2  4  1  0
  4  5  1  0
  5  6  2  0
  6  7  1  0
  7  8  2  0
  8  9  1  0
  9 10  1  0
 10 11  1  0
 11 12  1  0
 11 13  1  0
 13 14  1  0
 14 15  1  0
  9 16  2  0
 16  5  1  0
 15 13  1  0
M  END
>  <Energy>  (1245) 
14.895946724602293

>  <Energy_Delta>  (1245) 
4.8151401388729838

>  <std_smi>  (1245) 
CC(=O)Nc1cccc(NC(C)C2CC2)c1

>  <enum_smi>  (1245) 
CC(=O)Nc1cccc(NC(C)C2CC2)c1

>  <enum_code>  (1245) 
B

>  <o3da_score>  (1245) 
88.081379779663678

>  <o3da_score_rel>  (1245) 
0.3506647707643149

>  <o3da_align>  (1245) 
0.42512607768672006

>  <RMSD>  (1245) 
5.8676163759753586e-05

>  <CONVERGED>  (1245) 
0

>  <ENERGY>  (1245) 
14.895946723631285

$$$$
80177037-97d9-4251-9583-a2fb747585df
     RDKit          3D

 16 17  0  0  0  0  0  0  0  0999 V2000
   -7.8160   22.2697    2.8708 C   0  0  0  0  0  0  0  0  0  0  0  0
   -7.1395   23.5547    3.2802 C   0  0  0  0  0  0  0  0  0  0  0  0
   -7.7437   24.6201    3.2333 O   0  0  0  0  0  0  0  0  0  0  0  0
   -5.8439   23.3458    3.7169 N   0  0  0  0  0  0  0  0  0  0  0  0
   -4.9181   24.3136    4.1626 C   0  0  0  0  0  0  0  0  0  0  0  0
   -3.6800   23.8509    4.6106 C   0  0  0  0  0  0  0  0  0  0  0  0
   -2.7147   24.7525    5.0508 C   0  0  0  0  0  0  0  0  0  0  0  0
   -2.9821   26.1247    5.0543 C   0  0  0  0  0  0  0  0  0  0  0  0
   -4.2172   26.6245    4.6428 C   0  0  0  0  0  0  0  0  0  0  0  0
   -4.5399   27.9724    4.5520 N   0  0  0  0  0  0  0  0  0  0  0  0
   -3.8584   29.1105    5.1647 C   0  0  0  0  0  0  0  0  0  0  0  0
   -2.5360   29.4440    4.4847 C   0  0  0  0  0  0  0  0  0  0  0  0
   -3.7401   28.9609    6.6579 C   0  0  0  0  0  0  0  0  0  0  0  0
   -3.9551   30.1454    7.5700 C   0  0  0  0  0  0  0  0  0  0  0  0
   -4.9683   29.0361    7.5332 C   0  0  0  0  0  0  0  0  0  0  0  0
   -5.1635   25.6914    4.1699 C   0  0  0  0  0  0  0  0  0  0  0  0
  1  2  1  0
  2  3  2  0
  2  4  1  0
  4  5  1  0
  5  6  2  0
  6  7  1  0
  7  8  2  0
  8  9  1  0
  9 10  1  0
 10 11  1  0
 11 12  1  0
 11 13  1  0
 13 14  1  0
 14 15  1  0
  9 16  2  0
 16  5  1  0
 15 13  1  0
M  END
>  <Energy>  (1246) 
15.099512344070009

>  <Energy_Delta>  (1246) 
5.0187057583406993

>  <std_smi>  (1246) 
CC(=O)Nc1cccc(NC(C)C2CC2)c1

>  <enum_smi>  (1246) 
CC(=O)Nc1cccc(NC(C)C2CC2)c1

>  <enum_code>  (1246) 
B

>  <o3da_score>  (1246) 
84.724731963273754

>  <o3da_score_rel>  (1246) 
0.33730146810017259

>  <o3da_align>  (1246) 
0.39442585793225543

>  <RMSD>  (1246) 
0.015846703896395874

>  <CONVERGED>  (1246) 
0

>  <ENERGY>  (1246) 
15.070995258967793

$$$$
80177037-97d9-4251-9583-a2fb747585df
     RDKit          3D

 16 17  0  0  0  0  0  0  0  0999 V2000
    0.5690   32.1381   -0.9496 C   0  0  0  0  0  0  0  0  0  0  0  0
   -0.1387   32.0883    0.3820 C   0  0  0  0  0  0  0  0  0  0  0  0
   -0.1980   33.0828    1.0958 O   0  0  0  0  0  0  0  0  0  0  0  0
   -0.6448   30.8306    0.6559 N   0  0  0  0  0  0  0  0  0  0  0  0
   -1.3494   30.4189    1.8076 C   0  0  0  0  0  0  0  0  0  0  0  0
   -1.6440   31.2546    2.8792 C   0  0  0  0  0  0  0  0  0  0  0  0
   -2.3245   30.7504    3.9864 C   0  0  0  0  0  0  0  0  0  0  0  0
   -2.7276   29.4122    4.0230 C   0  0  0  0  0  0  0  0  0  0  0  0
   -2.4900   28.5547    2.9496 C   0  0  0  0  0  0  0  0  0  0  0  0
   -2.8034   27.1989    2.9361 N   0  0  0  0  0  0  0  0  0  0  0  0
   -3.7324   26.5171    3.8430 C   0  0  0  0  0  0  0  0  0  0  0  0
   -5.1501   27.0645    3.7117 C   0  0  0  0  0  0  0  0  0  0  0  0
   -3.1712   26.4289    5.2414 C   0  0  0  0  0  0  0  0  0  0  0  0
   -3.8826   26.9180    6.4859 C   0  0  0  0  0  0  0  0  0  0  0  0
   -3.7673   25.4457    6.2257 C   0  0  0  0  0  0  0  0  0  0  0  0
   -1.7662   29.0778    1.8615 C   0  0  0  0  0  0  0  0  0  0  0  0
  1  2  1  0
  2  3  2  0
  2  4  1  0
  4  5  1  0
  5  6  2  0
  6  7  1  0
  7  8  2  0
  8  9  1  0
  9 10  1  0
 10 11  1  0
 11 12  1  0
 11 13  1  0
 13 14  1  0
 14 15  1  0
  9 16  2  0
 16  5  1  0
 15 13  1  0
M  END
>  <Energy>  (1247) 
17.057525521370835

>  <Energy_Delta>  (1247) 
6.9767189356415251

>  <std_smi>  (1247) 
CC(=O)Nc1cccc(NC(C)C2CC2)c1

>  <enum_smi>  (1247) 
CC(=O)Nc1cccc(NC(C)C2CC2)c1

>  <enum_code>  (1247) 
B

>  <o3da_score>  (1247) 
88.305247350564315

>  <o3da_score_rel>  (1247) 
0.35155602009110576

>  <o3da_align>  (1247) 
0.4573201654184737

>  <RMSD>  (1247) 
0.19505776959844881

>  <CONVERGED>  (1247) 
0

>  <ENERGY>  (1247) 
16.639154745477676

$$$$
9a16ab13-0a20-427c-953c-0a46d13cc7c5
     RDKit          3D

 16 17  0  0  0  0  0  0  0  0999 V2000
    0.7755   23.9194    6.4306 C   0  0  0  0  0  0  0  0  0  0  0  0
   -0.3492   24.8520    6.0538 C   0  0  0  0  0  0  0  0  0  0  0  0
   -0.2082   26.0664    6.1418 O   0  0  0  0  0  0  0  0  0  0  0  0
   -1.4849   24.1669    5.6609 N   0  0  0  0  0  0  0  0  0  0  0  0
   -2.7157   24.7103    5.2322 C   0  0  0  0  0  0  0  0  0  0  0  0
   -3.7423   23.8056    4.9451 C   0  0  0  0  0  0  0  0  0  0  0  0
   -4.9797   24.2649    4.5019 C   0  0  0  0  0  0  0  0  0  0  0  0
   -5.1998   25.6344    4.3546 C   0  0  0  0  0  0  0  0  0  0  0  0
   -4.2045   26.5715    4.6650 C   0  0  0  0  0  0  0  0  0  0  0  0
   -4.4757   27.9194    4.4284 N   0  0  0  0  0  0  0  0  0  0  0  0
   -3.6338   28.9958    4.9465 C   0  0  2  0  0  0  0  0  0  0  0  0
   -3.8315   29.1650    6.4525 C   0  0  0  0  0  0  0  0  0  0  0  0
   -4.0415   30.2631    4.2287 C   0  0  0  0  0  0  0  0  0  0  0  0
   -3.5776   30.5170    2.8151 C   0  0  0  0  0  0  0  0  0  0  0  0
   -3.0284   31.3450    3.9432 C   0  0  0  0  0  0  0  0  0  0  0  0
   -2.9535   26.0814    5.0705 C   0  0  0  0  0  0  0  0  0  0  0  0
  1  2  1  0
  2  3  2  0
  2  4  1  0
  4  5  1  0
  5  6  2  0
  6  7  1  0
  7  8  2  0
  8  9  1  0
  9 10  1  0
 10 11  1  0
 11 12  1  1
 11 13  1  0
 13 14  1  0
 14 15  1  0
  9 16  2  0
 16  5  1  0
 15 13  1  0
M  END
>  <Energy>  (1248) 
10.022028110444166

>  <Energy_Delta>  (1248) 
0

>  <std_smi>  (1248) 
CC(=O)Nc1cccc(NC(C)C2CC2)c1

>  <enum_smi>  (1248) 
CC(=O)Nc1cccc(N[C@H](C)C2CC2)c1

>  <enum_code>  (1248) 
C

>  <parent_uuid>  (1248) 
80177037-97d9-4251-9583-a2fb747585df

>  <o3da_score>  (1248) 
86.929751031323079

>  <o3da_score_rel>  (1248) 
0.34607996939026003

>  <o3da_align>  (1248) 
0.31041110197526522

>  <RMSD>  (1248) 
0.21670065787104154

>  <CONVERGED>  (1248) 
0

>  <ENERGY>  (1248) 
9.9715352983278791

$$$$
9a16ab13-0a20-427c-953c-0a46d13cc7c5
     RDKit          3D

 16 17  0  0  0  0  0  0  0  0999 V2000
    1.1169   32.1648   -0.5744 C   0  0  0  0  0  0  0  0  0  0  0  0
    0.2059   32.0859    0.6257 C   0  0  0  0  0  0  0  0  0  0  0  0
    0.1710   32.9973    1.4445 O   0  0  0  0  0  0  0  0  0  0  0  0
   -0.5022   30.8986    0.6660 N   0  0  0  0  0  0  0  0  0  0  0  0
   -1.4433   30.4906    1.6355 C   0  0  0  0  0  0  0  0  0  0  0  0
   -1.8293   31.2704    2.7213 C   0  0  0  0  0  0  0  0  0  0  0  0
   -2.7881   30.7943    3.6152 C   0  0  0  0  0  0  0  0  0  0  0  0
   -3.3570   29.5302    3.4380 C   0  0  0  0  0  0  0  0  0  0  0  0
   -2.9609   28.7031    2.3850 C   0  0  0  0  0  0  0  0  0  0  0  0
   -3.5303   27.4598    2.1130 N   0  0  0  0  0  0  0  0  0  0  0  0
   -4.2993   26.7088    3.1020 C   0  0  2  0  0  0  0  0  0  0  0  0
   -3.3778   26.1011    4.1589 C   0  0  0  0  0  0  0  0  0  0  0  0
   -5.0276   25.6112    2.3605 C   0  0  0  0  0  0  0  0  0  0  0  0
   -6.2697   25.9282    1.5638 C   0  0  0  0  0  0  0  0  0  0  0  0
   -6.3777   25.1281    2.8320 C   0  0  0  0  0  0  0  0  0  0  0  0
   -2.0233   29.2212    1.4739 C   0  0  0  0  0  0  0  0  0  0  0  0
  1  2  1  0
  2  3  2  0
  2  4  1  0
  4  5  1  0
  5  6  2  0
  6  7  1  0
  7  8  2  0
  8  9  1  0
  9 10  1  0
 10 11  1  0
 11 12  1  1
 11 13  1  0
 13 14  1  0
 14 15  1  0
  9 16  2  0
 16  5  1  0
 15 13  1  0
M  END
>  <Energy>  (1249) 
10.080806641435037

>  <Energy_Delta>  (1249) 
0.058778530990871047

>  <std_smi>  (1249) 
CC(=O)Nc1cccc(NC(C)C2CC2)c1

>  <enum_smi>  (1249) 
CC(=O)Nc1cccc(N[C@H](C)C2CC2)c1

>  <enum_code>  (1249) 
C

>  <parent_uuid>  (1249) 
80177037-97d9-4251-9583-a2fb747585df

>  <o3da_score>  (1249) 
83.006584901517101

>  <o3da_score_rel>  (1249) 
0.33046127500763228

>  <o3da_align>  (1249) 
0.35879688249981062

>  <RMSD>  (1249) 
0.28893063004426578

>  <CONVERGED>  (1249) 
0

>  <ENERGY>  (1249) 
9.9889697835856452

$$$$
9a16ab13-0a20-427c-953c-0a46d13cc7c5
     RDKit          3D

 16 17  0  0  0  0  0  0  0  0999 V2000
   -0.2126   32.4623    1.3969 C   0  0  0  0  0  0  0  0  0  0  0  0
   -1.1064   32.4849    2.6122 C   0  0  0  0  0  0  0  0  0  0  0  0
   -1.2601   33.5165    3.2559 O   0  0  0  0  0  0  0  0  0  0  0  0
   -1.6579   31.2441    2.8759 N   0  0  0  0  0  0  0  0  0  0  0  0
   -2.5264   30.8942    3.9328 C   0  0  0  0  0  0  0  0  0  0  0  0
   -2.9649   31.7894    4.9050 C   0  0  0  0  0  0  0  0  0  0  0  0
   -3.8037   31.3516    5.9284 C   0  0  0  0  0  0  0  0  0  0  0  0
   -4.2197   30.0202    5.9734 C   0  0  0  0  0  0  0  0  0  0  0  0
   -3.8341   29.1028    4.9878 C   0  0  0  0  0  0  0  0  0  0  0  0
   -4.2398   27.7760    5.1249 N   0  0  0  0  0  0  0  0  0  0  0  0
   -4.2025   26.8166    4.0252 C   0  0  2  0  0  0  0  0  0  0  0  0
   -5.2994   27.1171    3.0044 C   0  0  0  0  0  0  0  0  0  0  0  0
   -4.4140   25.4442    4.6213 C   0  0  0  0  0  0  0  0  0  0  0  0
   -3.7633   24.2283    4.0074 C   0  0  0  0  0  0  0  0  0  0  0  0
   -3.2836   24.7442    5.3355 C   0  0  0  0  0  0  0  0  0  0  0  0
   -2.9569   29.5560    3.9928 C   0  0  0  0  0  0  0  0  0  0  0  0
  1  2  1  0
  2  3  2  0
  2  4  1  0
  4  5  1  0
  5  6  2  0
  6  7  1  0
  7  8  2  0
  8  9  1  0
  9 10  1  0
 10 11  1  0
 11 12  1  6
 11 13  1  0
 13 14  1  0
 14 15  1  0
  9 16  2  0
 16  5  1  0
 15 13  1  0
M  END
>  <Energy>  (1250) 
10.192971288374425

>  <Energy_Delta>  (1250) 
0.17094317793025837

>  <std_smi>  (1250) 
CC(=O)Nc1cccc(NC(C)C2CC2)c1

>  <enum_smi>  (1250) 
CC(=O)Nc1cccc(N[C@H](C)C2CC2)c1

>  <enum_code>  (1250) 
C

>  <parent_uuid>  (1250) 
80177037-97d9-4251-9583-a2fb747585df

>  <o3da_score>  (1250) 
89.726758683396852

>  <o3da_score_rel>  (1250) 
0.35721526324685032

>  <o3da_align>  (1250) 
0.52721108629576507

>  <RMSD>  (1250) 
0.28376389231651944

>  <CONVERGED>  (1250) 
0

>  <ENERGY>  (1250) 
10.052952645793377

$$$$
9a16ab13-0a20-427c-953c-0a46d13cc7c5
     RDKit          3D

 16 17  0  0  0  0  0  0  0  0999 V2000
   -7.8590   22.3160    2.8238 C   0  0  0  0  0  0  0  0  0  0  0  0
   -7.1252   23.5898    3.1641 C   0  0  0  0  0  0  0  0  0  0  0  0
   -7.6436   24.6817    2.9609 O   0  0  0  0  0  0  0  0  0  0  0  0
   -5.8883   23.3435    3.7321 N   0  0  0  0  0  0  0  0  0  0  0  0
   -4.9327   24.2907    4.1587 C   0  0  0  0  0  0  0  0  0  0  0  0
   -3.7736   23.7973    4.7629 C   0  0  0  0  0  0  0  0  0  0  0  0
   -2.7790   24.6724    5.1945 C   0  0  0  0  0  0  0  0  0  0  0  0
   -2.9396   26.0505    5.0346 C   0  0  0  0  0  0  0  0  0  0  0  0
   -4.1008   26.5796    4.4649 C   0  0  0  0  0  0  0  0  0  0  0  0
   -4.2912   27.9398    4.2171 N   0  0  0  0  0  0  0  0  0  0  0  0
   -3.5824   28.9811    4.9545 C   0  0  2  0  0  0  0  0  0  0  0  0
   -4.1103   29.0895    6.3846 C   0  0  0  0  0  0  0  0  0  0  0  0
   -3.8099   30.2825    4.2206 C   0  0  0  0  0  0  0  0  0  0  0  0
   -2.7543   31.3616    4.2182 C   0  0  0  0  0  0  0  0  0  0  0  0
   -3.0375   30.5883    2.9605 C   0  0  0  0  0  0  0  0  0  0  0  0
   -5.0741   25.6738    4.0019 C   0  0  0  0  0  0  0  0  0  0  0  0
  1  2  1  0
  2  3  2  0
  2  4  1  0
  4  5  1  0
  5  6  2  0
  6  7  1  0
  7  8  2  0
  8  9  1  0
  9 10  1  0
 10 11  1  0
 11 12  1  1
 11 13  1  0
 13 14  1  0
 14 15  1  0
  9 16  2  0
 16  5  1  0
 15 13  1  0
M  END
>  <Energy>  (1251) 
10.414747306631838

>  <Energy_Delta>  (1251) 
0.39271919618767193

>  <std_smi>  (1251) 
CC(=O)Nc1cccc(NC(C)C2CC2)c1

>  <enum_smi>  (1251) 
CC(=O)Nc1cccc(N[C@H](C)C2CC2)c1

>  <enum_code>  (1251) 
C

>  <parent_uuid>  (1251) 
80177037-97d9-4251-9583-a2fb747585df

>  <o3da_score>  (1251) 
87.838701353342884

>  <o3da_score_rel>  (1251) 
0.34969863268895662

>  <o3da_align>  (1251) 
0.23936344009321925

>  <RMSD>  (1251) 
0.4014670831025306

>  <CONVERGED>  (1251) 
0

>  <ENERGY>  (1251) 
10.232708599150241

$$$$
9a16ab13-0a20-427c-953c-0a46d13cc7c5
     RDKit          3D

 16 17  0  0  0  0  0  0  0  0999 V2000
    0.4838   23.0481    6.2570 C   0  0  0  0  0  0  0  0  0  0  0  0
   -0.8841   23.0736    5.6210 C   0  0  0  0  0  0  0  0  0  0  0  0
   -1.3909   22.0455    5.1871 O   0  0  0  0  0  0  0  0  0  0  0  0
   -1.4394   24.3403    5.6316 N   0  0  0  0  0  0  0  0  0  0  0  0
   -2.7023   24.7317    5.1361 C   0  0  0  0  0  0  0  0  0  0  0  0
   -3.6095   23.8558    4.5459 C   0  0  0  0  0  0  0  0  0  0  0  0
   -4.8474   24.3244    4.1090 C   0  0  0  0  0  0  0  0  0  0  0  0
   -5.1744   25.6745    4.2441 C   0  0  0  0  0  0  0  0  0  0  0  0
   -4.2669   26.5923    4.7883 C   0  0  0  0  0  0  0  0  0  0  0  0
   -4.6750   27.9191    4.9447 N   0  0  0  0  0  0  0  0  0  0  0  0
   -3.7206   29.0263    4.9878 C   0  0  2  0  0  0  0  0  0  0  0  0
   -4.4209   30.2257    5.6327 C   0  0  0  0  0  0  0  0  0  0  0  0
   -3.2909   29.3753    3.5845 C   0  0  0  0  0  0  0  0  0  0  0  0
   -2.0205   30.1557    3.3447 C   0  0  0  0  0  0  0  0  0  0  0  0
   -2.0974   28.7106    2.9418 C   0  0  0  0  0  0  0  0  0  0  0  0
   -3.0479   26.0894    5.2629 C   0  0  0  0  0  0  0  0  0  0  0  0
  1  2  1  0
  2  3  2  0
  2  4  1  0
  4  5  1  0
  5  6  2  0
  6  7  1  0
  7  8  2  0
  8  9  1  0
  9 10  1  0
 10 11  1  0
 11 12  1  6
 11 13  1  0
 13 14  1  0
 14 15  1  0
  9 16  2  0
 16  5  1  0
 15 13  1  0
M  END
>  <Energy>  (1252) 
10.430629540004317

>  <Energy_Delta>  (1252) 
0.40860142956015011

>  <std_smi>  (1252) 
CC(=O)Nc1cccc(NC(C)C2CC2)c1

>  <enum_smi>  (1252) 
CC(=O)Nc1cccc(N[C@H](C)C2CC2)c1

>  <enum_code>  (1252) 
C

>  <parent_uuid>  (1252) 
80177037-97d9-4251-9583-a2fb747585df

>  <o3da_score>  (1252) 
91.228818855568846

>  <o3da_score_rel>  (1252) 
0.36319518303541964

>  <o3da_align>  (1252) 
0.2862445574358729

>  <RMSD>  (1252) 
6.6065611885520915e-05

>  <CONVERGED>  (1252) 
0

>  <ENERGY>  (1252) 
10.430629539873014

$$$$
9a16ab13-0a20-427c-953c-0a46d13cc7c5
     RDKit          3D

 16 17  0  0  0  0  0  0  0  0999 V2000
    0.7245   31.9396   -0.8039 C   0  0  0  0  0  0  0  0  0  0  0  0
   -0.0399   31.9813    0.4962 C   0  0  0  0  0  0  0  0  0  0  0  0
   -0.0333   32.9897    1.1928 O   0  0  0  0  0  0  0  0  0  0  0  0
   -0.6715   30.7814    0.7687 N   0  0  0  0  0  0  0  0  0  0  0  0
   -1.4732   30.4656    1.8865 C   0  0  0  0  0  0  0  0  0  0  0  0
   -1.7777   31.3642    2.9041 C   0  0  0  0  0  0  0  0  0  0  0  0
   -2.6019   30.9704    3.9579 C   0  0  0  0  0  0  0  0  0  0  0  0
   -3.1156   29.6716    4.0094 C   0  0  0  0  0  0  0  0  0  0  0  0
   -2.7944   28.7306    3.0291 C   0  0  0  0  0  0  0  0  0  0  0  0
   -3.3202   27.4394    2.9823 N   0  0  0  0  0  0  0  0  0  0  0  0
   -3.9265   26.7884    4.1426 C   0  0  2  0  0  0  0  0  0  0  0  0
   -2.8439   26.3462    5.1291 C   0  0  0  0  0  0  0  0  0  0  0  0
   -4.7548   25.5889    3.7245 C   0  0  0  0  0  0  0  0  0  0  0  0
   -4.2995   24.5774    2.6968 C   0  0  0  0  0  0  0  0  0  0  0  0
   -5.4425   25.5053    2.3811 C   0  0  0  0  0  0  0  0  0  0  0  0
   -1.9958   29.1633    1.9554 C   0  0  0  0  0  0  0  0  0  0  0  0
  1  2  1  0
  2  3  2  0
  2  4  1  0
  4  5  1  0
  5  6  2  0
  6  7  1  0
  7  8  2  0
  8  9  1  0
  9 10  1  0
 10 11  1  0
 11 12  1  1
 11 13  1  0
 13 14  1  0
 14 15  1  0
  9 16  2  0
 16  5  1  0
 15 13  1  0
M  END
>  <Energy>  (1253) 
11.417854185233521

>  <Energy_Delta>  (1253) 
1.3958260747893547

>  <std_smi>  (1253) 
CC(=O)Nc1cccc(NC(C)C2CC2)c1

>  <enum_smi>  (1253) 
CC(=O)Nc1cccc(N[C@H](C)C2CC2)c1

>  <enum_code>  (1253) 
C

>  <parent_uuid>  (1253) 
80177037-97d9-4251-9583-a2fb747585df

>  <o3da_score>  (1253) 
92.189724875151327

>  <o3da_score_rel>  (1253) 
0.367020689515062

>  <o3da_align>  (1253) 
0.49885489228036384

>  <RMSD>  (1253) 
6.7379300809484614e-05

>  <CONVERGED>  (1253) 
0

>  <ENERGY>  (1253) 
11.417854185200959

$$$$
9a16ab13-0a20-427c-953c-0a46d13cc7c5
     RDKit          3D

 16 17  0  0  0  0  0  0  0  0999 V2000
   -0.3324   32.6426    1.3197 C   0  0  0  0  0  0  0  0  0  0  0  0
   -1.0836   32.5876    2.6271 C   0  0  0  0  0  0  0  0  0  0  0  0
   -1.0492   33.5320    3.4076 O   0  0  0  0  0  0  0  0  0  0  0  0
   -1.7377   31.3817    2.8025 N   0  0  0  0  0  0  0  0  0  0  0  0
   -2.5354   30.9871    3.8979 C   0  0  0  0  0  0  0  0  0  0  0  0
   -2.8114   31.8008    4.9922 C   0  0  0  0  0  0  0  0  0  0  0  0
   -3.6338   31.3343    6.0174 C   0  0  0  0  0  0  0  0  0  0  0  0
   -4.1742   30.0465    5.9630 C   0  0  0  0  0  0  0  0  0  0  0  0
   -3.8821   29.1871    4.9020 C   0  0  0  0  0  0  0  0  0  0  0  0
   -4.4353   27.9157    4.7503 N   0  0  0  0  0  0  0  0  0  0  0  0
   -5.0444   27.1796    5.8570 C   0  0  2  0  0  0  0  0  0  0  0  0
   -3.9622   26.6323    6.7898 C   0  0  0  0  0  0  0  0  0  0  0  0
   -5.9016   26.0375    5.3468 C   0  0  0  0  0  0  0  0  0  0  0  0
   -6.6034   26.0837    4.0089 C   0  0  0  0  0  0  0  0  0  0  0  0
   -5.4773   25.1092    4.2310 C   0  0  0  0  0  0  0  0  0  0  0  0
   -3.0846   29.6945    3.8605 C   0  0  0  0  0  0  0  0  0  0  0  0
  1  2  1  0
  2  3  2  0
  2  4  1  0
  4  5  1  0
  5  6  2  0
  6  7  1  0
  7  8  2  0
  8  9  1  0
  9 10  1  0
 10 11  1  0
 11 12  1  1
 11 13  1  0
 13 14  1  0
 14 15  1  0
  9 16  2  0
 16  5  1  0
 15 13  1  0
M  END
>  <Energy>  (1254) 
11.426179679686614

>  <Energy_Delta>  (1254) 
1.4041515692424476

>  <std_smi>  (1254) 
CC(=O)Nc1cccc(NC(C)C2CC2)c1

>  <enum_smi>  (1254) 
CC(=O)Nc1cccc(N[C@H](C)C2CC2)c1

>  <enum_code>  (1254) 
C

>  <parent_uuid>  (1254) 
80177037-97d9-4251-9583-a2fb747585df

>  <o3da_score>  (1254) 
75.803261315418183

>  <o3da_score_rel>  (1254) 
0.30178379719814236

>  <o3da_align>  (1254) 
0.35392499139539563

>  <RMSD>  (1254) 
0.017151404044827189

>  <CONVERGED>  (1254) 
0

>  <ENERGY>  (1254) 
11.417854185174914

$$$$
9a16ab13-0a20-427c-953c-0a46d13cc7c5
     RDKit          3D

 16 17  0  0  0  0  0  0  0  0999 V2000
    0.3991   22.8307    6.2358 C   0  0  0  0  0  0  0  0  0  0  0  0
   -1.0619   22.8917    5.8642 C   0  0  0  0  0  0  0  0  0  0  0  0
   -1.7388   21.8708    5.8220 O   0  0  0  0  0  0  0  0  0  0  0  0
   -1.4867   24.1871    5.6304 N   0  0  0  0  0  0  0  0  0  0  0  0
   -2.7796   24.6157    5.2583 C   0  0  0  0  0  0  0  0  0  0  0  0
   -3.8490   23.7519    5.0367 C   0  0  0  0  0  0  0  0  0  0  0  0
   -5.0861   24.2601    4.6449 C   0  0  0  0  0  0  0  0  0  0  0  0
   -5.2618   25.6357    4.4887 C   0  0  0  0  0  0  0  0  0  0  0  0
   -4.2208   26.5372    4.7457 C   0  0  0  0  0  0  0  0  0  0  0  0
   -4.4502   27.8934    4.5131 N   0  0  0  0  0  0  0  0  0  0  0  0
   -3.6006   28.9484    5.0618 C   0  0  2  0  0  0  0  0  0  0  0  0
   -3.8493   29.1038    6.5633 C   0  0  0  0  0  0  0  0  0  0  0  0
   -3.8506   30.2709    4.3638 C   0  0  0  0  0  0  0  0  0  0  0  0
   -5.2314   30.7921    4.0347 C   0  0  0  0  0  0  0  0  0  0  0  0
   -4.3098   30.3567    2.9264 C   0  0  0  0  0  0  0  0  0  0  0  0
   -2.9747   25.9998    5.0966 C   0  0  0  0  0  0  0  0  0  0  0  0
  1  2  1  0
  2  3  2  0
  2  4  1  0
  4  5  1  0
  5  6  2  0
  6  7  1  0
  7  8  2  0
  8  9  1  0
  9 10  1  0
 10 11  1  0
 11 12  1  1
 11 13  1  0
 13 14  1  0
 14 15  1  0
  9 16  2  0
 16  5  1  0
 15 13  1  0
M  END
>  <Energy>  (1255) 
11.482468389372491

>  <Energy_Delta>  (1255) 
1.4604402789283242

>  <std_smi>  (1255) 
CC(=O)Nc1cccc(NC(C)C2CC2)c1

>  <enum_smi>  (1255) 
CC(=O)Nc1cccc(N[C@H](C)C2CC2)c1

>  <enum_code>  (1255) 
C

>  <parent_uuid>  (1255) 
80177037-97d9-4251-9583-a2fb747585df

>  <o3da_score>  (1255) 
74.848336713017432

>  <o3da_score_rel>  (1255) 
0.29798210360937571

>  <o3da_align>  (1255) 
0.49099746610082612

>  <RMSD>  (1255) 
5.9213307306486096e-05

>  <CONVERGED>  (1255) 
0

>  <ENERGY>  (1255) 
11.482468388525383

$$$$
9a16ab13-0a20-427c-953c-0a46d13cc7c5
     RDKit          3D

 16 17  0  0  0  0  0  0  0  0999 V2000
    0.8499   24.1909    6.3036 C   0  0  0  0  0  0  0  0  0  0  0  0
   -0.3497   25.0516    5.9932 C   0  0  0  0  0  0  0  0  0  0  0  0
   -0.3173   26.2619    6.1819 O   0  0  0  0  0  0  0  0  0  0  0  0
   -1.4130   24.3055    5.5173 N   0  0  0  0  0  0  0  0  0  0  0  0
   -2.6934   24.7690    5.1458 C   0  0  0  0  0  0  0  0  0  0  0  0
   -3.5937   23.8222    4.6512 C   0  0  0  0  0  0  0  0  0  0  0  0
   -4.8808   24.2040    4.2785 C   0  0  0  0  0  0  0  0  0  0  0  0
   -5.2756   25.5393    4.3868 C   0  0  0  0  0  0  0  0  0  0  0  0
   -4.3892   26.5180    4.8441 C   0  0  0  0  0  0  0  0  0  0  0  0
   -4.7425   27.8545    5.0392 N   0  0  0  0  0  0  0  0  0  0  0  0
   -5.8495   28.4900    4.3284 C   0  0  2  0  0  0  0  0  0  0  0  0
   -5.4712   28.7354    2.8663 C   0  0  0  0  0  0  0  0  0  0  0  0
   -6.2376   29.8024    4.9815 C   0  0  0  0  0  0  0  0  0  0  0  0
   -5.2311   30.8244    5.4600 C   0  0  0  0  0  0  0  0  0  0  0  0
   -6.0561   30.0586    6.4600 C   0  0  0  0  0  0  0  0  0  0  0  0
   -3.1074   26.1012    5.2514 C   0  0  0  0  0  0  0  0  0  0  0  0
  1  2  1  0
  2  3  2  0
  2  4  1  0
  4  5  1  0
  5  6  2  0
  6  7  1  0
  7  8  2  0
  8  9  1  0
  9 10  1  0
 10 11  1  0
 11 12  1  6
 11 13  1  0
 13 14  1  0
 14 15  1  0
  9 16  2  0
 16  5  1  0
 15 13  1  0
M  END
>  <Energy>  (1256) 
11.640426611448301

>  <Energy_Delta>  (1256) 
1.6183985010041351

>  <std_smi>  (1256) 
CC(=O)Nc1cccc(NC(C)C2CC2)c1

>  <enum_smi>  (1256) 
CC(=O)Nc1cccc(N[C@H](C)C2CC2)c1

>  <enum_code>  (1256) 
C

>  <parent_uuid>  (1256) 
80177037-97d9-4251-9583-a2fb747585df

>  <o3da_score>  (1256) 
81.664232506721675

>  <o3da_score_rel>  (1256) 
0.32511717508568094

>  <o3da_align>  (1256) 
0.21492326443740656

>  <RMSD>  (1256) 
0.015294340300193349

>  <CONVERGED>  (1256) 
0

>  <ENERGY>  (1256) 
11.671930102379259

$$$$
9a16ab13-0a20-427c-953c-0a46d13cc7c5
     RDKit          3D

 16 17  0  0  0  0  0  0  0  0999 V2000
    0.7060   31.9461   -0.8102 C   0  0  0  0  0  0  0  0  0  0  0  0
   -0.0429   31.9799    0.4992 C   0  0  0  0  0  0  0  0  0  0  0  0
   -0.0243   32.9825    1.2038 O   0  0  0  0  0  0  0  0  0  0  0  0
   -0.6758   30.7801    0.7691 N   0  0  0  0  0  0  0  0  0  0  0  0
   -1.4652   30.4579    1.8939 C   0  0  0  0  0  0  0  0  0  0  0  0
   -1.7535   31.3490    2.9229 C   0  0  0  0  0  0  0  0  0  0  0  0
   -2.5661   30.9493    3.9835 C   0  0  0  0  0  0  0  0  0  0  0  0
   -3.0843   29.6522    4.0300 C   0  0  0  0  0  0  0  0  0  0  0  0
   -2.7794   28.7186    3.0374 C   0  0  0  0  0  0  0  0  0  0  0  0
   -3.3115   27.4315    2.9883 N   0  0  0  0  0  0  0  0  0  0  0  0
   -3.8995   26.7655    4.1501 C   0  0  2  0  0  0  0  0  0  0  0  0
   -2.8036   26.3398    5.1268 C   0  0  0  0  0  0  0  0  0  0  0  0
   -4.7424   25.6339    3.6041 C   0  0  0  0  0  0  0  0  0  0  0  0
   -4.9854   24.3304    4.3287 C   0  0  0  0  0  0  0  0  0  0  0  0
   -4.1455   24.3478    3.0798 C   0  0  0  0  0  0  0  0  0  0  0  0
   -1.9924   29.1572    1.9578 C   0  0  0  0  0  0  0  0  0  0  0  0
  1  2  1  0
  2  3  2  0
  2  4  1  0
  4  5  1  0
  5  6  2  0
  6  7  1  0
  7  8  2  0
  8  9  1  0
  9 10  1  0
 10 11  1  0
 11 12  1  1
 11 13  1  0
 13 14  1  0
 14 15  1  0
  9 16  2  0
 16  5  1  0
 15 13  1  0
M  END
>  <Energy>  (1257) 
12.24441569256798

>  <Energy_Delta>  (1257) 
2.2223875821238135

>  <std_smi>  (1257) 
CC(=O)Nc1cccc(NC(C)C2CC2)c1

>  <enum_smi>  (1257) 
CC(=O)Nc1cccc(N[C@H](C)C2CC2)c1

>  <enum_code>  (1257) 
C

>  <parent_uuid>  (1257) 
80177037-97d9-4251-9583-a2fb747585df

>  <o3da_score>  (1257) 
97.840801404223214

>  <o3da_score_rel>  (1257) 
0.38951844625542714

>  <o3da_align>  (1257) 
0.49471846544715581

>  <RMSD>  (1257) 
0.017265037335267991

>  <CONVERGED>  (1257) 
0

>  <ENERGY>  (1257) 
12.236462965824328

$$$$
9a16ab13-0a20-427c-953c-0a46d13cc7c5
     RDKit          3D

 16 17  0  0  0  0  0  0  0  0999 V2000
   -7.1225   21.4476    3.0591 C   0  0  0  0  0  0  0  0  0  0  0  0
   -5.8446   22.0093    3.6315 C   0  0  0  0  0  0  0  0  0  0  0  0
   -4.9318   21.2654    3.9713 O   0  0  0  0  0  0  0  0  0  0  0  0
   -5.8795   23.3886    3.7286 N   0  0  0  0  0  0  0  0  0  0  0  0
   -4.8710   24.2420    4.2253 C   0  0  0  0  0  0  0  0  0  0  0  0
   -3.6455   23.7978    4.7110 C   0  0  0  0  0  0  0  0  0  0  0  0
   -2.7166   24.7154    5.2009 C   0  0  0  0  0  0  0  0  0  0  0  0
   -3.0016   26.0838    5.1986 C   0  0  0  0  0  0  0  0  0  0  0  0
   -4.2058   26.5681    4.6847 C   0  0  0  0  0  0  0  0  0  0  0  0
   -4.5835   27.9070    4.7001 N   0  0  0  0  0  0  0  0  0  0  0  0
   -3.6893   29.0068    5.0445 C   0  0  2  0  0  0  0  0  0  0  0  0
   -4.5420   30.1328    5.6409 C   0  0  0  0  0  0  0  0  0  0  0  0
   -2.9010   29.5345    3.8675 C   0  0  0  0  0  0  0  0  0  0  0  0
   -3.5535   29.8885    2.5493 C   0  0  0  0  0  0  0  0  0  0  0  0
   -2.5857   28.7400    2.6195 C   0  0  0  0  0  0  0  0  0  0  0  0
   -5.1394   25.6210    4.2268 C   0  0  0  0  0  0  0  0  0  0  0  0
  1  2  1  0
  2  3  2  0
  2  4  1  0
  4  5  1  0
  5  6  2  0
  6  7  1  0
  7  8  2  0
  8  9  1  0
  9 10  1  0
 10 11  1  0
 11 12  1  6
 11 13  1  0
 13 14  1  0
 14 15  1  0
  9 16  2  0
 16  5  1  0
 15 13  1  0
M  END
>  <Energy>  (1258) 
12.295228394387824

>  <Energy_Delta>  (1258) 
2.2732002839436571

>  <std_smi>  (1258) 
CC(=O)Nc1cccc(NC(C)C2CC2)c1

>  <enum_smi>  (1258) 
CC(=O)Nc1cccc(N[C@H](C)C2CC2)c1

>  <enum_code>  (1258) 
C

>  <parent_uuid>  (1258) 
80177037-97d9-4251-9583-a2fb747585df

>  <o3da_score>  (1258) 
86.909080526934872

>  <o3da_score_rel>  (1258) 
0.34599767710895152

>  <o3da_align>  (1258) 
0.17181205137853139

>  <RMSD>  (1258) 
0.017240364066260516

>  <CONVERGED>  (1258) 
0

>  <ENERGY>  (1258) 
12.301937889328544

$$$$
9a16ab13-0a20-427c-953c-0a46d13cc7c5
     RDKit          3D

 16 17  0  0  0  0  0  0  0  0999 V2000
   -4.3686   30.3578    4.9137 C   0  0  0  0  0  0  0  0  0  0  0  0
   -3.7299   29.0178    5.1841 C   0  0  0  0  0  0  0  0  0  0  0  0
   -2.6868   28.9406    5.8229 O   0  0  0  0  0  0  0  0  0  0  0  0
   -4.4713   27.9725    4.6638 N   0  0  0  0  0  0  0  0  0  0  0  0
   -4.1750   26.5932    4.7228 C   0  0  0  0  0  0  0  0  0  0  0  0
   -3.0286   26.0711    5.3161 C   0  0  0  0  0  0  0  0  0  0  0  0
   -2.8029   24.6957    5.3058 C   0  0  0  0  0  0  0  0  0  0  0  0
   -3.7310   23.8367    4.7155 C   0  0  0  0  0  0  0  0  0  0  0  0
   -4.9154   24.3232    4.1479 C   0  0  0  0  0  0  0  0  0  0  0  0
   -5.7707   23.4162    3.5248 N   0  0  0  0  0  0  0  0  0  0  0  0
   -7.1675   23.7153    3.2142 C   0  0  2  0  0  0  0  0  0  0  0  0
   -7.9992   23.7514    4.4960 C   0  0  0  0  0  0  0  0  0  0  0  0
   -7.6044   22.6831    2.1983 C   0  0  0  0  0  0  0  0  0  0  0  0
   -7.9228   21.2531    2.5707 C   0  0  0  0  0  0  0  0  0  0  0  0
   -9.0163   22.1597    2.0728 C   0  0  0  0  0  0  0  0  0  0  0  0
   -5.1000   25.7126    4.1326 C   0  0  0  0  0  0  0  0  0  0  0  0
  1  2  1  0
  2  3  2  0
  2  4  1  0
  4  5  1  0
  5  6  2  0
  6  7  1  0
  7  8  2  0
  8  9  1  0
  9 10  1  0
 10 11  1  0
 11 12  1  1
 11 13  1  0
 13 14  1  0
 14 15  1  0
  9 16  2  0
 16  5  1  0
 15 13  1  0
M  END
>  <Energy>  (1259) 
12.297972799219332

>  <Energy_Delta>  (1259) 
2.2759446887751658

>  <std_smi>  (1259) 
CC(=O)Nc1cccc(NC(C)C2CC2)c1

>  <enum_smi>  (1259) 
CC(=O)Nc1cccc(N[C@H](C)C2CC2)c1

>  <enum_code>  (1259) 
C

>  <parent_uuid>  (1259) 
80177037-97d9-4251-9583-a2fb747585df

>  <o3da_score>  (1259) 
79.387505086247216

>  <o3da_score_rel>  (1259) 
0.31605319242566093

>  <o3da_align>  (1259) 
0.17286751446146331

>  <RMSD>  (1259) 
7.2223909996488756e-05

>  <CONVERGED>  (1259) 
0

>  <ENERGY>  (1259) 
12.297972799058885

$$$$
9a16ab13-0a20-427c-953c-0a46d13cc7c5
     RDKit          3D

 16 17  0  0  0  0  0  0  0  0999 V2000
   -4.3686   30.3578    4.9137 C   0  0  0  0  0  0  0  0  0  0  0  0
   -3.7299   29.0179    5.1841 C   0  0  0  0  0  0  0  0  0  0  0  0
   -2.6868   28.9407    5.8229 O   0  0  0  0  0  0  0  0  0  0  0  0
   -4.4713   27.9725    4.6638 N   0  0  0  0  0  0  0  0  0  0  0  0
   -4.1750   26.5932    4.7229 C   0  0  0  0  0  0  0  0  0  0  0  0
   -3.0285   26.0711    5.3161 C   0  0  0  0  0  0  0  0  0  0  0  0
   -2.8028   24.6957    5.3059 C   0  0  0  0  0  0  0  0  0  0  0  0
   -3.7310   23.8367    4.7156 C   0  0  0  0  0  0  0  0  0  0  0  0
   -4.9154   24.3232    4.1480 C   0  0  0  0  0  0  0  0  0  0  0  0
   -5.7707   23.4162    3.5248 N   0  0  0  0  0  0  0  0  0  0  0  0
   -7.1675   23.7153    3.2143 C   0  0  2  0  0  0  0  0  0  0  0  0
   -7.9992   23.7514    4.4961 C   0  0  0  0  0  0  0  0  0  0  0  0
   -7.6043   22.6831    2.1984 C   0  0  0  0  0  0  0  0  0  0  0  0
   -9.0163   22.1597    2.0728 C   0  0  0  0  0  0  0  0  0  0  0  0
   -7.9228   21.2531    2.5708 C   0  0  0  0  0  0  0  0  0  0  0  0
   -5.1000   25.7126    4.1327 C   0  0  0  0  0  0  0  0  0  0  0  0
  1  2  1  0
  2  3  2  0
  2  4  1  0
  4  5  1  0
  5  6  2  0
  6  7  1  0
  7  8  2  0
  8  9  1  0
  9 10  1  0
 10 11  1  0
 11 12  1  1
 11 13  1  0
 13 14  1  0
 14 15  1  0
  9 16  2  0
 16  5  1  0
 15 13  1  0
M  END
>  <Energy>  (1260) 
12.297972799843972

>  <Energy_Delta>  (1260) 
2.2759446893998057

>  <std_smi>  (1260) 
CC(=O)Nc1cccc(NC(C)C2CC2)c1

>  <enum_smi>  (1260) 
CC(=O)Nc1cccc(N[C@H](C)C2CC2)c1

>  <enum_code>  (1260) 
C

>  <parent_uuid>  (1260) 
80177037-97d9-4251-9583-a2fb747585df

>  <o3da_score>  (1260) 
79.387303779824805

>  <o3da_score_rel>  (1260) 
0.31605239099554433

>  <o3da_align>  (1260) 
0.17287850397035964

>  <RMSD>  (1260) 
7.125884230631297e-05

>  <CONVERGED>  (1260) 
0

>  <ENERGY>  (1260) 
12.297972799243752

$$$$
9a16ab13-0a20-427c-953c-0a46d13cc7c5
     RDKit          3D

 16 17  0  0  0  0  0  0  0  0999 V2000
   -7.0285   21.5508    2.7514 C   0  0  0  0  0  0  0  0  0  0  0  0
   -5.7701   22.0926    3.3831 C   0  0  0  0  0  0  0  0  0  0  0  0
   -4.8521   21.3414    3.6915 O   0  0  0  0  0  0  0  0  0  0  0  0
   -5.8281   23.4621    3.5680 N   0  0  0  0  0  0  0  0  0  0  0  0
   -4.8424   24.2959    4.1384 C   0  0  0  0  0  0  0  0  0  0  0  0
   -3.6203   23.8382    4.6205 C   0  0  0  0  0  0  0  0  0  0  0  0
   -2.7169   24.7342    5.1913 C   0  0  0  0  0  0  0  0  0  0  0  0
   -3.0220   26.0959    5.2702 C   0  0  0  0  0  0  0  0  0  0  0  0
   -4.2189   26.5968    4.7541 C   0  0  0  0  0  0  0  0  0  0  0  0
   -4.6178   27.9311    4.8558 N   0  0  0  0  0  0  0  0  0  0  0  0
   -3.6711   29.0232    5.0889 C   0  0  2  0  0  0  0  0  0  0  0  0
   -4.4620   30.2133    5.6364 C   0  0  0  0  0  0  0  0  0  0  0  0
   -2.9168   29.2975    3.8085 C   0  0  0  0  0  0  0  0  0  0  0  0
   -3.5859   29.8908    2.5894 C   0  0  0  0  0  0  0  0  0  0  0  0
   -2.5351   30.6778    3.3240 C   0  0  0  0  0  0  0  0  0  0  0  0
   -5.1316   25.6682    4.2223 C   0  0  0  0  0  0  0  0  0  0  0  0
  1  2  1  0
  2  3  2  0
  2  4  1  0
  4  5  1  0
  5  6  2  0
  6  7  1  0
  7  8  2  0
  8  9  1  0
  9 10  1  0
 10 11  1  0
 11 12  1  6
 11 13  1  0
 13 14  1  0
 14 15  1  0
  9 16  2  0
 16  5  1  0
 15 13  1  0
M  END
>  <Energy>  (1261) 
12.433000172384665

>  <Energy_Delta>  (1261) 
2.4109720619404982

>  <std_smi>  (1261) 
CC(=O)Nc1cccc(NC(C)C2CC2)c1

>  <enum_smi>  (1261) 
CC(=O)Nc1cccc(N[C@H](C)C2CC2)c1

>  <enum_code>  (1261) 
C

>  <parent_uuid>  (1261) 
80177037-97d9-4251-9583-a2fb747585df

>  <o3da_score>  (1261) 
85.700370750527028

>  <o3da_score_rel>  (1261) 
0.3411856278685228

>  <o3da_align>  (1261) 
0.22483653629149133

>  <RMSD>  (1261) 
0.01729479004314197

>  <CONVERGED>  (1261) 
0

>  <ENERGY>  (1261) 
12.440702592076633

$$$$
9a16ab13-0a20-427c-953c-0a46d13cc7c5
     RDKit          3D

 16 17  0  0  0  0  0  0  0  0999 V2000
   -7.0285   21.5508    2.7514 C   0  0  0  0  0  0  0  0  0  0  0  0
   -5.7700   22.0926    3.3831 C   0  0  0  0  0  0  0  0  0  0  0  0
   -4.8521   21.3414    3.6915 O   0  0  0  0  0  0  0  0  0  0  0  0
   -5.8281   23.4621    3.5680 N   0  0  0  0  0  0  0  0  0  0  0  0
   -4.8424   24.2959    4.1384 C   0  0  0  0  0  0  0  0  0  0  0  0
   -3.6202   23.8382    4.6205 C   0  0  0  0  0  0  0  0  0  0  0  0
   -2.7169   24.7342    5.1913 C   0  0  0  0  0  0  0  0  0  0  0  0
   -3.0220   26.0959    5.2702 C   0  0  0  0  0  0  0  0  0  0  0  0
   -4.2189   26.5969    4.7541 C   0  0  0  0  0  0  0  0  0  0  0  0
   -4.6178   27.9311    4.8558 N   0  0  0  0  0  0  0  0  0  0  0  0
   -3.6711   29.0232    5.0889 C   0  0  2  0  0  0  0  0  0  0  0  0
   -4.4620   30.2133    5.6365 C   0  0  0  0  0  0  0  0  0  0  0  0
   -2.9168   29.2975    3.8086 C   0  0  0  0  0  0  0  0  0  0  0  0
   -2.5352   30.6779    3.3240 C   0  0  0  0  0  0  0  0  0  0  0  0
   -3.5859   29.8909    2.5894 C   0  0  0  0  0  0  0  0  0  0  0  0
   -5.1316   25.6682    4.2224 C   0  0  0  0  0  0  0  0  0  0  0  0
  1  2  1  0
  2  3  2  0
  2  4  1  0
  4  5  1  0
  5  6  2  0
  6  7  1  0
  7  8  2  0
  8  9  1  0
  9 10  1  0
 10 11  1  0
 11 12  1  6
 11 13  1  0
 13 14  1  0
 14 15  1  0
  9 16  2  0
 16  5  1  0
 15 13  1  0
M  END
>  <Energy>  (1262) 
12.433000173720375

>  <Energy_Delta>  (1262) 
2.4109720632762084

>  <std_smi>  (1262) 
CC(=O)Nc1cccc(NC(C)C2CC2)c1

>  <enum_smi>  (1262) 
CC(=O)Nc1cccc(N[C@H](C)C2CC2)c1

>  <enum_code>  (1262) 
C

>  <parent_uuid>  (1262) 
80177037-97d9-4251-9583-a2fb747585df

>  <o3da_score>  (1262) 
85.700167501350975

>  <o3da_score_rel>  (1262) 
0.34118481870402168

>  <o3da_align>  (1262) 
0.22484988146001253

>  <RMSD>  (1262) 
0.01729746748429891

>  <CONVERGED>  (1262) 
0

>  <ENERGY>  (1262) 
12.440702592064161

$$$$
9a16ab13-0a20-427c-953c-0a46d13cc7c5
     RDKit          3D

 16 17  0  0  0  0  0  0  0  0999 V2000
    0.8508   24.1892    6.3019 C   0  0  0  0  0  0  0  0  0  0  0  0
   -0.3488   25.0503    5.9930 C   0  0  0  0  0  0  0  0  0  0  0  0
   -0.3161   26.2605    6.1833 O   0  0  0  0  0  0  0  0  0  0  0  0
   -1.4125   24.3050    5.5169 N   0  0  0  0  0  0  0  0  0  0  0  0
   -2.6929   24.7692    5.1462 C   0  0  0  0  0  0  0  0  0  0  0  0
   -3.5940   23.8225    4.6523 C   0  0  0  0  0  0  0  0  0  0  0  0
   -4.8811   24.2048    4.2798 C   0  0  0  0  0  0  0  0  0  0  0  0
   -5.2749   25.5402    4.3880 C   0  0  0  0  0  0  0  0  0  0  0  0
   -4.3880   26.5186    4.8452 C   0  0  0  0  0  0  0  0  0  0  0  0
   -4.7421   27.8539    5.0382 N   0  0  0  0  0  0  0  0  0  0  0  0
   -5.8478   28.4944    4.3291 C   0  0  2  0  0  0  0  0  0  0  0  0
   -5.4839   28.7057    2.8598 C   0  0  0  0  0  0  0  0  0  0  0  0
   -6.1653   29.7593    5.0962 C   0  0  0  0  0  0  0  0  0  0  0  0
   -5.2995   30.9963    5.0247 C   0  0  0  0  0  0  0  0  0  0  0  0
   -6.6967   31.0256    4.4657 C   0  0  0  0  0  0  0  0  0  0  0  0
   -3.1061   26.1017    5.2516 C   0  0  0  0  0  0  0  0  0  0  0  0
  1  2  1  0
  2  3  2  0
  2  4  1  0
  4  5  1  0
  5  6  2  0
  6  7  1  0
  7  8  2  0
  8  9  1  0
  9 10  1  0
 10 11  1  0
 11 12  1  6
 11 13  1  0
 13 14  1  0
 14 15  1  0
  9 16  2  0
 16  5  1  0
 15 13  1  0
M  END
>  <Energy>  (1263) 
12.500539325685359

>  <Energy_Delta>  (1263) 
2.478511215241193

>  <std_smi>  (1263) 
CC(=O)Nc1cccc(NC(C)C2CC2)c1

>  <enum_smi>  (1263) 
CC(=O)Nc1cccc(N[C@H](C)C2CC2)c1

>  <enum_code>  (1263) 
C

>  <parent_uuid>  (1263) 
80177037-97d9-4251-9583-a2fb747585df

>  <o3da_score>  (1263) 
81.65848206171259

>  <o3da_score_rel>  (1263) 
0.32509428172858379

>  <o3da_align>  (1263) 
0.21519062722017121

>  <RMSD>  (1263) 
0.015094361966306098

>  <CONVERGED>  (1263) 
0

>  <ENERGY>  (1263) 
12.531334097021555

$$$$
9a16ab13-0a20-427c-953c-0a46d13cc7c5
     RDKit          3D

 16 17  0  0  0  0  0  0  0  0999 V2000
    0.8443   24.1861    6.3184 C   0  0  0  0  0  0  0  0  0  0  0  0
   -0.3542   25.0478    6.0066 C   0  0  0  0  0  0  0  0  0  0  0  0
   -0.3222   26.2576    6.1989 O   0  0  0  0  0  0  0  0  0  0  0  0
   -1.4162   24.3031    5.5256 N   0  0  0  0  0  0  0  0  0  0  0  0
   -2.6953   24.7678    5.1511 C   0  0  0  0  0  0  0  0  0  0  0  0
   -3.5946   23.8219    4.6525 C   0  0  0  0  0  0  0  0  0  0  0  0
   -4.8804   24.2047    4.2761 C   0  0  0  0  0  0  0  0  0  0  0  0
   -5.2747   25.5399    4.3849 C   0  0  0  0  0  0  0  0  0  0  0  0
   -4.3894   26.5176    4.8468 C   0  0  0  0  0  0  0  0  0  0  0  0
   -4.7442   27.8526    5.0405 N   0  0  0  0  0  0  0  0  0  0  0  0
   -5.8475   28.4942    4.3285 C   0  0  2  0  0  0  0  0  0  0  0  0
   -5.4783   28.7078    2.8607 C   0  0  0  0  0  0  0  0  0  0  0  0
   -6.1677   29.7579    5.0964 C   0  0  0  0  0  0  0  0  0  0  0  0
   -6.6969   31.0252    4.4659 C   0  0  0  0  0  0  0  0  0  0  0  0
   -5.3017   30.9951    5.0298 C   0  0  0  0  0  0  0  0  0  0  0  0
   -3.1090   26.1001    5.2570 C   0  0  0  0  0  0  0  0  0  0  0  0
  1  2  1  0
  2  3  2  0
  2  4  1  0
  4  5  1  0
  5  6  2  0
  6  7  1  0
  7  8  2  0
  8  9  1  0
  9 10  1  0
 10 11  1  0
 11 12  1  6
 11 13  1  0
 13 14  1  0
 14 15  1  0
  9 16  2  0
 16  5  1  0
 15 13  1  0
M  END
>  <Energy>  (1264) 
12.531334097490323

>  <Energy_Delta>  (1264) 
2.5093059870461563

>  <std_smi>  (1264) 
CC(=O)Nc1cccc(NC(C)C2CC2)c1

>  <enum_smi>  (1264) 
CC(=O)Nc1cccc(N[C@H](C)C2CC2)c1

>  <enum_code>  (1264) 
C

>  <parent_uuid>  (1264) 
80177037-97d9-4251-9583-a2fb747585df

>  <o3da_score>  (1264) 
81.652175358851736

>  <o3da_score_rel>  (1264) 
0.32506917382815681

>  <o3da_align>  (1264) 
0.21570810019962061

>  <RMSD>  (1264) 
6.4647935220871888e-05

>  <CONVERGED>  (1264) 
0

>  <ENERGY>  (1264) 
12.531334097028743

$$$$
9a16ab13-0a20-427c-953c-0a46d13cc7c5
     RDKit          3D

 16 17  0  0  0  0  0  0  0  0999 V2000
   -7.6719   22.4205    2.4583 C   0  0  0  0  0  0  0  0  0  0  0  0
   -7.0090   23.6830    2.9511 C   0  0  0  0  0  0  0  0  0  0  0  0
   -7.5649   24.7687    2.8330 O   0  0  0  0  0  0  0  0  0  0  0  0
   -5.7784   23.4297    3.5301 N   0  0  0  0  0  0  0  0  0  0  0  0
   -4.8912   24.3610    4.1115 C   0  0  0  0  0  0  0  0  0  0  0  0
   -3.6802   23.8653    4.6012 C   0  0  0  0  0  0  0  0  0  0  0  0
   -2.7614   24.7231    5.2023 C   0  0  0  0  0  0  0  0  0  0  0  0
   -3.0407   26.0874    5.3085 C   0  0  0  0  0  0  0  0  0  0  0  0
   -4.2256   26.6223    4.7962 C   0  0  0  0  0  0  0  0  0  0  0  0
   -4.5939   27.9639    4.9319 N   0  0  0  0  0  0  0  0  0  0  0  0
   -3.6101   29.0364    5.0810 C   0  0  2  0  0  0  0  0  0  0  0  0
   -4.3352   30.2559    5.6539 C   0  0  0  0  0  0  0  0  0  0  0  0
   -2.9316   29.2690    3.7507 C   0  0  0  0  0  0  0  0  0  0  0  0
   -2.5666   30.6312    3.2054 C   0  0  0  0  0  0  0  0  0  0  0  0
   -3.6701   29.8382    2.5606 C   0  0  0  0  0  0  0  0  0  0  0  0
   -5.1558   25.7296    4.2300 C   0  0  0  0  0  0  0  0  0  0  0  0
  1  2  1  0
  2  3  2  0
  2  4  1  0
  4  5  1  0
  5  6  2  0
  6  7  1  0
  7  8  2  0
  8  9  1  0
  9 10  1  0
 10 11  1  0
 11 12  1  6
 11 13  1  0
 13 14  1  0
 14 15  1  0
  9 16  2  0
 16  5  1  0
 15 13  1  0
M  END
>  <Energy>  (1265) 
12.674674281111972

>  <Energy_Delta>  (1265) 
2.6526461706678059

>  <std_smi>  (1265) 
CC(=O)Nc1cccc(NC(C)C2CC2)c1

>  <enum_smi>  (1265) 
CC(=O)Nc1cccc(N[C@H](C)C2CC2)c1

>  <enum_code>  (1265) 
C

>  <parent_uuid>  (1265) 
80177037-97d9-4251-9583-a2fb747585df

>  <o3da_score>  (1265) 
94.028578477325112

>  <o3da_score_rel>  (1265) 
0.37434143288316579

>  <o3da_align>  (1265) 
0.25660068745301756

>  <RMSD>  (1265) 
0.015532930034488317

>  <CONVERGED>  (1265) 
0

>  <ENERGY>  (1265) 
12.704121377389317

$$$$
9a16ab13-0a20-427c-953c-0a46d13cc7c5
     RDKit          3D

 16 17  0  0  0  0  0  0  0  0999 V2000
    0.5685   23.0568    6.0219 C   0  0  0  0  0  0  0  0  0  0  0  0
   -0.8900   23.0500    5.6356 C   0  0  0  0  0  0  0  0  0  0  0  0
   -1.4974   21.9932    5.5081 O   0  0  0  0  0  0  0  0  0  0  0  0
   -1.3968   24.3289    5.4921 N   0  0  0  0  0  0  0  0  0  0  0  0
   -2.7126   24.6998    5.1377 C   0  0  0  0  0  0  0  0  0  0  0  0
   -3.7224   23.7874    4.8473 C   0  0  0  0  0  0  0  0  0  0  0  0
   -4.9872   24.2447    4.4870 C   0  0  0  0  0  0  0  0  0  0  0  0
   -5.2460   25.6153    4.4293 C   0  0  0  0  0  0  0  0  0  0  0  0
   -4.2653   26.5660    4.7505 C   0  0  0  0  0  0  0  0  0  0  0  0
   -4.5967   27.9063    4.6082 N   0  0  0  0  0  0  0  0  0  0  0  0
   -3.8463   29.0813    5.0474 C   0  0  2  0  0  0  0  0  0  0  0  0
   -2.6047   29.3415    4.2030 C   0  0  0  0  0  0  0  0  0  0  0  0
   -3.5671   29.0504    6.5262 C   0  0  0  0  0  0  0  0  0  0  0  0
   -4.6907   29.2248    7.5198 C   0  0  0  0  0  0  0  0  0  0  0  0
   -3.6642   30.3098    7.3541 C   0  0  0  0  0  0  0  0  0  0  0  0
   -2.9948   26.0782    5.0727 C   0  0  0  0  0  0  0  0  0  0  0  0
  1  2  1  0
  2  3  2  0
  2  4  1  0
  4  5  1  0
  5  6  2  0
  6  7  1  0
  7  8  2  0
  8  9  1  0
  9 10  1  0
 10 11  1  0
 11 12  1  6
 11 13  1  0
 13 14  1  0
 14 15  1  0
  9 16  2  0
 16  5  1  0
 15 13  1  0
M  END
>  <Energy>  (1266) 
14.828877223007616

>  <Energy_Delta>  (1266) 
4.8068491125634498

>  <std_smi>  (1266) 
CC(=O)Nc1cccc(NC(C)C2CC2)c1

>  <enum_smi>  (1266) 
CC(=O)Nc1cccc(N[C@H](C)C2CC2)c1

>  <enum_code>  (1266) 
C

>  <parent_uuid>  (1266) 
80177037-97d9-4251-9583-a2fb747585df

>  <o3da_score>  (1266) 
77.227790880958835

>  <o3da_score_rel>  (1266) 
0.30745505637683468

>  <o3da_align>  (1266) 
0.33791742432485006

>  <RMSD>  (1266) 
5.6381835340576022e-05

>  <CONVERGED>  (1266) 
0

>  <ENERGY>  (1266) 
14.828877220524841

$$$$
9a16ab13-0a20-427c-953c-0a46d13cc7c5
     RDKit          3D

 16 17  0  0  0  0  0  0  0  0999 V2000
   -7.1715   21.3956    3.3333 C   0  0  0  0  0  0  0  0  0  0  0  0
   -5.8627   21.9837    3.7997 C   0  0  0  0  0  0  0  0  0  0  0  0
   -4.9160   21.2574    4.0798 O   0  0  0  0  0  0  0  0  0  0  0  0
   -5.9117   23.3633    3.8844 N   0  0  0  0  0  0  0  0  0  0  0  0
   -4.8765   24.2380    4.2785 C   0  0  0  0  0  0  0  0  0  0  0  0
   -3.5979   23.8214    4.6294 C   0  0  0  0  0  0  0  0  0  0  0  0
   -2.6343   24.7644    4.9825 C   0  0  0  0  0  0  0  0  0  0  0  0
   -2.9451   26.1283    4.9982 C   0  0  0  0  0  0  0  0  0  0  0  0
   -4.2256   26.5838    4.6909 C   0  0  0  0  0  0  0  0  0  0  0  0
   -4.6066   27.9172    4.6203 N   0  0  0  0  0  0  0  0  0  0  0  0
   -3.8750   29.0920    5.0941 C   0  0  2  0  0  0  0  0  0  0  0  0
   -2.6439   29.4068    4.2533 C   0  0  0  0  0  0  0  0  0  0  0  0
   -3.5901   29.0188    6.5701 C   0  0  0  0  0  0  0  0  0  0  0  0
   -4.7114   29.1466    7.5736 C   0  0  0  0  0  0  0  0  0  0  0  0
   -3.7006   30.2504    7.4373 C   0  0  0  0  0  0  0  0  0  0  0  0
   -5.1696   25.6124    4.3034 C   0  0  0  0  0  0  0  0  0  0  0  0
  1  2  1  0
  2  3  2  0
  2  4  1  0
  4  5  1  0
  5  6  2  0
  6  7  1  0
  7  8  2  0
  8  9  1  0
  9 10  1  0
 10 11  1  0
 11 12  1  6
 11 13  1  0
 13 14  1  0
 14 15  1  0
  9 16  2  0
 16  5  1  0
 15 13  1  0
M  END
>  <Energy>  (1267) 
14.889411020557414

>  <Energy_Delta>  (1267) 
4.867382910113248

>  <std_smi>  (1267) 
CC(=O)Nc1cccc(NC(C)C2CC2)c1

>  <enum_smi>  (1267) 
CC(=O)Nc1cccc(N[C@H](C)C2CC2)c1

>  <enum_code>  (1267) 
C

>  <parent_uuid>  (1267) 
80177037-97d9-4251-9583-a2fb747585df

>  <o3da_score>  (1267) 
77.319697000310867

>  <o3da_score_rel>  (1267) 
0.30782094799155546

>  <o3da_align>  (1267) 
0.3306835899761949

>  <RMSD>  (1267) 
6.7047781001224356e-05

>  <CONVERGED>  (1267) 
0

>  <ENERGY>  (1267) 
14.889411020005756

$$$$
9a16ab13-0a20-427c-953c-0a46d13cc7c5
     RDKit          3D

 16 17  0  0  0  0  0  0  0  0999 V2000
   -7.1714   21.3955    3.3333 C   0  0  0  0  0  0  0  0  0  0  0  0
   -5.8626   21.9836    3.7997 C   0  0  0  0  0  0  0  0  0  0  0  0
   -4.9159   21.2574    4.0798 O   0  0  0  0  0  0  0  0  0  0  0  0
   -5.9116   23.3632    3.8844 N   0  0  0  0  0  0  0  0  0  0  0  0
   -4.8765   24.2380    4.2785 C   0  0  0  0  0  0  0  0  0  0  0  0
   -3.5978   23.8214    4.6294 C   0  0  0  0  0  0  0  0  0  0  0  0
   -2.6343   24.7644    4.9825 C   0  0  0  0  0  0  0  0  0  0  0  0
   -2.9451   26.1284    4.9982 C   0  0  0  0  0  0  0  0  0  0  0  0
   -4.2256   26.5837    4.6909 C   0  0  0  0  0  0  0  0  0  0  0  0
   -4.6066   27.9172    4.6203 N   0  0  0  0  0  0  0  0  0  0  0  0
   -3.8751   29.0920    5.0941 C   0  0  2  0  0  0  0  0  0  0  0  0
   -2.6439   29.4069    4.2532 C   0  0  0  0  0  0  0  0  0  0  0  0
   -3.5902   29.0188    6.5700 C   0  0  0  0  0  0  0  0  0  0  0  0
   -3.7007   30.2504    7.4372 C   0  0  0  0  0  0  0  0  0  0  0  0
   -4.7114   29.1466    7.5736 C   0  0  0  0  0  0  0  0  0  0  0  0
   -5.1696   25.6123    4.3034 C   0  0  0  0  0  0  0  0  0  0  0  0
  1  2  1  0
  2  3  2  0
  2  4  1  0
  4  5  1  0
  5  6  2  0
  6  7  1  0
  7  8  2  0
  8  9  1  0
  9 10  1  0
 10 11  1  0
 11 12  1  6
 11 13  1  0
 13 14  1  0
 14 15  1  0
  9 16  2  0
 16  5  1  0
 15 13  1  0
M  END
>  <Energy>  (1268) 
14.889411021634794

>  <Energy_Delta>  (1268) 
4.8673829111906279

>  <std_smi>  (1268) 
CC(=O)Nc1cccc(NC(C)C2CC2)c1

>  <enum_smi>  (1268) 
CC(=O)Nc1cccc(N[C@H](C)C2CC2)c1

>  <enum_code>  (1268) 
C

>  <parent_uuid>  (1268) 
80177037-97d9-4251-9583-a2fb747585df

>  <o3da_score>  (1268) 
77.320020659998988

>  <o3da_score_rel>  (1268) 
0.30782223652780027

>  <o3da_align>  (1268) 
0.33066857129907984

>  <RMSD>  (1268) 
5.9478626549553473e-05

>  <CONVERGED>  (1268) 
0

>  <ENERGY>  (1268) 
14.889411019999658

$$$$
9a16ab13-0a20-427c-953c-0a46d13cc7c5
     RDKit          3D

 16 17  0  0  0  0  0  0  0  0999 V2000
   -7.7488   22.3245    2.6916 C   0  0  0  0  0  0  0  0  0  0  0  0
   -7.0728   23.6077    3.1070 C   0  0  0  0  0  0  0  0  0  0  0  0
   -7.6430   24.6850    2.9801 O   0  0  0  0  0  0  0  0  0  0  0  0
   -5.8124   23.3829    3.6311 N   0  0  0  0  0  0  0  0  0  0  0  0
   -4.9052   24.3394    4.1354 C   0  0  0  0  0  0  0  0  0  0  0  0
   -3.6665   23.8700    4.5771 C   0  0  0  0  0  0  0  0  0  0  0  0
   -2.7276   24.7559    5.0997 C   0  0  0  0  0  0  0  0  0  0  0  0
   -3.0162   26.1208    5.1755 C   0  0  0  0  0  0  0  0  0  0  0  0
   -4.2297   26.6317    4.7137 C   0  0  0  0  0  0  0  0  0  0  0  0
   -4.6109   27.9665    4.8192 N   0  0  0  0  0  0  0  0  0  0  0  0
   -3.7139   29.1114    4.9934 C   0  0  2  0  0  0  0  0  0  0  0  0
   -2.7163   29.2251    3.8450 C   0  0  0  0  0  0  0  0  0  0  0  0
   -3.1392   29.1496    6.3889 C   0  0  0  0  0  0  0  0  0  0  0  0
   -2.5101   30.4264    6.9035 C   0  0  0  0  0  0  0  0  0  0  0  0
   -1.6599   29.2064    6.7094 C   0  0  0  0  0  0  0  0  0  0  0  0
   -5.1762   25.7095    4.2238 C   0  0  0  0  0  0  0  0  0  0  0  0
  1  2  1  0
  2  3  2  0
  2  4  1  0
  4  5  1  0
  5  6  2  0
  6  7  1  0
  7  8  2  0
  8  9  1  0
  9 10  1  0
 10 11  1  0
 11 12  1  6
 11 13  1  0
 13 14  1  0
 14 15  1  0
  9 16  2  0
 16  5  1  0
 15 13  1  0
M  END
>  <Energy>  (1269) 
16.688095932164089

>  <Energy_Delta>  (1269) 
6.6660678217199223

>  <std_smi>  (1269) 
CC(=O)Nc1cccc(NC(C)C2CC2)c1

>  <enum_smi>  (1269) 
CC(=O)Nc1cccc(N[C@H](C)C2CC2)c1

>  <enum_code>  (1269) 
C

>  <parent_uuid>  (1269) 
80177037-97d9-4251-9583-a2fb747585df

>  <o3da_score>  (1269) 
88.176886670413438

>  <o3da_score_rel>  (1269) 
0.35104499757314733

>  <o3da_align>  (1269) 
0.21497416250102044

>  <RMSD>  (1269) 
0.015126107923968716

>  <CONVERGED>  (1269) 
0

>  <ENERGY>  (1269) 
16.718831169608936

$$$$
9a16ab13-0a20-427c-953c-0a46d13cc7c5
     RDKit          3D

 16 17  0  0  0  0  0  0  0  0999 V2000
   -7.0846   21.4037    3.0578 C   0  0  0  0  0  0  0  0  0  0  0  0
   -5.8088   21.9845    3.6159 C   0  0  0  0  0  0  0  0  0  0  0  0
   -4.8615   21.2588    3.8951 O   0  0  0  0  0  0  0  0  0  0  0  0
   -5.8868   23.3563    3.7741 N   0  0  0  0  0  0  0  0  0  0  0  0
   -4.8927   24.2221    4.2786 C   0  0  0  0  0  0  0  0  0  0  0  0
   -3.6402   23.7998    4.7109 C   0  0  0  0  0  0  0  0  0  0  0  0
   -2.7313   24.7275    5.2173 C   0  0  0  0  0  0  0  0  0  0  0  0
   -3.0628   26.0842    5.2810 C   0  0  0  0  0  0  0  0  0  0  0  0
   -4.2912   26.5522    4.8161 C   0  0  0  0  0  0  0  0  0  0  0  0
   -4.7180   27.8739    4.9027 N   0  0  0  0  0  0  0  0  0  0  0  0
   -3.8667   29.0437    5.1418 C   0  0  2  0  0  0  0  0  0  0  0  0
   -2.8358   29.2252    4.0321 C   0  0  0  0  0  0  0  0  0  0  0  0
   -3.3430   29.0632    6.5573 C   0  0  0  0  0  0  0  0  0  0  0  0
   -2.7813   30.3470    7.1291 C   0  0  0  0  0  0  0  0  0  0  0  0
   -1.8789   29.1657    6.9312 C   0  0  0  0  0  0  0  0  0  0  0  0
   -5.2058   25.5904    4.3471 C   0  0  0  0  0  0  0  0  0  0  0  0
  1  2  1  0
  2  3  2  0
  2  4  1  0
  4  5  1  0
  5  6  2  0
  6  7  1  0
  7  8  2  0
  8  9  1  0
  9 10  1  0
 10 11  1  0
 11 12  1  6
 11 13  1  0
 13 14  1  0
 14 15  1  0
  9 16  2  0
 16  5  1  0
 15 13  1  0
M  END
>  <Energy>  (1270) 
17.057525518363754

>  <Energy_Delta>  (1270) 
7.0354974079195873

>  <std_smi>  (1270) 
CC(=O)Nc1cccc(NC(C)C2CC2)c1

>  <enum_smi>  (1270) 
CC(=O)Nc1cccc(N[C@H](C)C2CC2)c1

>  <enum_code>  (1270) 
C

>  <parent_uuid>  (1270) 
80177037-97d9-4251-9583-a2fb747585df

>  <o3da_score>  (1270) 
78.115849157512386

>  <o3da_score_rel>  (1270) 
0.31099054540700199

>  <o3da_align>  (1270) 
0.28400178107022628

>  <RMSD>  (1270) 
0.19505308298996527

>  <CONVERGED>  (1270) 
0

>  <ENERGY>  (1270) 
16.639154745460871

$$$$
9a16ab13-0a20-427c-953c-0a46d13cc7c5
     RDKit          3D

 16 17  0  0  0  0  0  0  0  0999 V2000
   -7.0733   21.4247    2.9877 C   0  0  0  0  0  0  0  0  0  0  0  0
   -5.7995   21.9978    3.5579 C   0  0  0  0  0  0  0  0  0  0  0  0
   -4.8540   21.2681    3.8331 O   0  0  0  0  0  0  0  0  0  0  0  0
   -5.8768   23.3678    3.7314 N   0  0  0  0  0  0  0  0  0  0  0  0
   -4.8841   24.2268    4.2500 C   0  0  0  0  0  0  0  0  0  0  0  0
   -3.6340   23.7984    4.6830 C   0  0  0  0  0  0  0  0  0  0  0  0
   -2.7264   24.7194    5.2039 C   0  0  0  0  0  0  0  0  0  0  0  0
   -3.0569   26.0757    5.2815 C   0  0  0  0  0  0  0  0  0  0  0  0
   -4.2828   26.5501    4.8166 C   0  0  0  0  0  0  0  0  0  0  0  0
   -4.7087   27.8712    4.9163 N   0  0  0  0  0  0  0  0  0  0  0  0
   -3.8573   29.0373    5.1724 C   0  0  2  0  0  0  0  0  0  0  0  0
   -2.8214   29.2304    4.0694 C   0  0  0  0  0  0  0  0  0  0  0  0
   -3.3399   29.0402    6.5903 C   0  0  0  0  0  0  0  0  0  0  0  0
   -1.8774   29.1371    6.9718 C   0  0  0  0  0  0  0  0  0  0  0  0
   -2.7795   30.3169    7.1791 C   0  0  0  0  0  0  0  0  0  0  0  0
   -5.1962   25.5946    4.3326 C   0  0  0  0  0  0  0  0  0  0  0  0
  1  2  1  0
  2  3  2  0
  2  4  1  0
  4  5  1  0
  5  6  2  0
  6  7  1  0
  7  8  2  0
  8  9  1  0
  9 10  1  0
 10 11  1  0
 11 12  1  6
 11 13  1  0
 13 14  1  0
 14 15  1  0
  9 16  2  0
 16  5  1  0
 15 13  1  0
M  END
>  <Energy>  (1271) 
17.064100037556194

>  <Energy_Delta>  (1271) 
7.042071927112028

>  <std_smi>  (1271) 
CC(=O)Nc1cccc(NC(C)C2CC2)c1

>  <enum_smi>  (1271) 
CC(=O)Nc1cccc(N[C@H](C)C2CC2)c1

>  <enum_code>  (1271) 
C

>  <parent_uuid>  (1271) 
80177037-97d9-4251-9583-a2fb747585df

>  <o3da_score>  (1271) 
78.092804210270685

>  <o3da_score_rel>  (1271) 
0.31089880012369692

>  <o3da_align>  (1271) 
0.290139457591929

>  <RMSD>  (1271) 
0.18936546865555276

>  <CONVERGED>  (1271) 
0

>  <ENERGY>  (1271) 
16.639154745493755

$$$$
16bf8579-8f37-4ab9-a9a8-dd28e5f1981b
     RDKit          3D

 16 17  0  0  0  0  0  0  0  0999 V2000
    0.7827   32.0745   -0.7779 C   0  0  0  0  0  0  0  0  0  0  0  0
   -0.0413   32.0559    0.4859 C   0  0  0  0  0  0  0  0  0  0  0  0
   -0.1852   33.0737    1.1533 O   0  0  0  0  0  0  0  0  0  0  0  0
   -0.5446   30.7973    0.7609 N   0  0  0  0  0  0  0  0  0  0  0  0
   -1.3416   30.4106    1.8597 C   0  0  0  0  0  0  0  0  0  0  0  0
   -1.7483   31.2775    2.8691 C   0  0  0  0  0  0  0  0  0  0  0  0
   -2.5156   30.7994    3.9310 C   0  0  0  0  0  0  0  0  0  0  0  0
   -2.8943   29.4551    3.9834 C   0  0  0  0  0  0  0  0  0  0  0  0
   -2.5423   28.5673    2.9646 C   0  0  0  0  0  0  0  0  0  0  0  0
   -2.8323   27.2037    2.9837 N   0  0  0  0  0  0  0  0  0  0  0  0
   -3.8628   26.6260    3.8426 C   0  0  1  0  0  0  0  0  0  0  0  0
   -5.2581   26.9565    3.3139 C   0  0  0  0  0  0  0  0  0  0  0  0
   -3.6535   25.1290    3.8448 C   0  0  0  0  0  0  0  0  0  0  0  0
   -2.5506   24.5181    4.6746 C   0  0  0  0  0  0  0  0  0  0  0  0
   -3.9866   24.3069    5.0661 C   0  0  0  0  0  0  0  0  0  0  0  0
   -1.7343   29.0632    1.9261 C   0  0  0  0  0  0  0  0  0  0  0  0
  1  2  1  0
  2  3  2  0
  2  4  1  0
  4  5  1  0
  5  6  2  0
  6  7  1  0
  7  8  2  0
  8  9  1  0
  9 10  1  0
 10 11  1  0
 11 12  1  6
 11 13  1  0
 13 14  1  0
 14 15  1  0
  9 16  2  0
 16  5  1  0
 15 13  1  0
M  END
>  <Energy>  (1272) 
9.9971728263820214

>  <Energy_Delta>  (1272) 
0

>  <std_smi>  (1272) 
CC(=O)Nc1cccc(NC(C)C2CC2)c1

>  <enum_smi>  (1272) 
CC(=O)Nc1cccc(N[C@@H](C)C2CC2)c1

>  <enum_code>  (1272) 
C

>  <parent_uuid>  (1272) 
80177037-97d9-4251-9583-a2fb747585df

>  <o3da_score>  (1272) 
90.951387966876865

>  <o3da_score_rel>  (1272) 
0.36209069035797209

>  <o3da_align>  (1272) 
0.50458391933149405

>  <RMSD>  (1272) 
5.56082906231432e-05

>  <CONVERGED>  (1272) 
0

>  <ENERGY>  (1272) 
9.9971728262183657

$$$$
16bf8579-8f37-4ab9-a9a8-dd28e5f1981b
     RDKit          3D

 16 17  0  0  0  0  0  0  0  0999 V2000
    0.4748   23.0262    6.2439 C   0  0  0  0  0  0  0  0  0  0  0  0
   -0.9131   23.0463    5.6525 C   0  0  0  0  0  0  0  0  0  0  0  0
   -1.4541   22.0072    5.2926 O   0  0  0  0  0  0  0  0  0  0  0  0
   -1.4430   24.3233    5.6116 N   0  0  0  0  0  0  0  0  0  0  0  0
   -2.7142   24.7138    5.1370 C   0  0  0  0  0  0  0  0  0  0  0  0
   -3.6572   23.8263    4.6251 C   0  0  0  0  0  0  0  0  0  0  0  0
   -4.8987   24.2965    4.2007 C   0  0  0  0  0  0  0  0  0  0  0  0
   -5.1950   25.6584    4.2718 C   0  0  0  0  0  0  0  0  0  0  0  0
   -4.2547   26.5850    4.7397 C   0  0  0  0  0  0  0  0  0  0  0  0
   -4.6365   27.9224    4.8370 N   0  0  0  0  0  0  0  0  0  0  0  0
   -3.6771   29.0140    4.9755 C   0  0  1  0  0  0  0  0  0  0  0  0
   -2.9318   29.2522    3.6628 C   0  0  0  0  0  0  0  0  0  0  0  0
   -4.4579   30.2501    5.3575 C   0  0  0  0  0  0  0  0  0  0  0  0
   -3.8435   31.3071    6.2429 C   0  0  0  0  0  0  0  0  0  0  0  0
   -4.9449   30.4328    6.7743 C   0  0  0  0  0  0  0  0  0  0  0  0
   -3.0293   26.0836    5.2000 C   0  0  0  0  0  0  0  0  0  0  0  0
  1  2  1  0
  2  3  2  0
  2  4  1  0
  4  5  1  0
  5  6  2  0
  6  7  1  0
  7  8  2  0
  8  9  1  0
  9 10  1  0
 10 11  1  0
 11 12  1  6
 11 13  1  0
 13 14  1  0
 14 15  1  0
  9 16  2  0
 16  5  1  0
 15 13  1  0
M  END
>  <Energy>  (1273) 
10.044515774566491

>  <Energy_Delta>  (1273) 
0.047342948184470046

>  <std_smi>  (1273) 
CC(=O)Nc1cccc(NC(C)C2CC2)c1

>  <enum_smi>  (1273) 
CC(=O)Nc1cccc(N[C@@H](C)C2CC2)c1

>  <enum_code>  (1273) 
C

>  <parent_uuid>  (1273) 
80177037-97d9-4251-9583-a2fb747585df

>  <o3da_score>  (1273) 
80.206164139209875

>  <o3da_score_rel>  (1273) 
0.31931239306329173

>  <o3da_align>  (1273) 
0.13150696411298959

>  <RMSD>  (1273) 
0.017171962882160871

>  <CONVERGED>  (1273) 
0

>  <ENERGY>  (1273) 
10.052952645805558

$$$$
16bf8579-8f37-4ab9-a9a8-dd28e5f1981b
     RDKit          3D

 16 17  0  0  0  0  0  0  0  0999 V2000
    0.6560   32.0921   -0.8570 C   0  0  0  0  0  0  0  0  0  0  0  0
   -0.1563   32.0997    0.4144 C   0  0  0  0  0  0  0  0  0  0  0  0
   -0.3168   33.1369    1.0474 O   0  0  0  0  0  0  0  0  0  0  0  0
   -0.6293   30.8409    0.7378 N   0  0  0  0  0  0  0  0  0  0  0  0
   -1.4079   30.4756    1.8569 C   0  0  0  0  0  0  0  0  0  0  0  0
   -1.8248   31.3682    2.8394 C   0  0  0  0  0  0  0  0  0  0  0  0
   -2.5720   30.9109    3.9245 C   0  0  0  0  0  0  0  0  0  0  0  0
   -2.9205   29.5614    4.0272 C   0  0  0  0  0  0  0  0  0  0  0  0
   -2.5580   28.6464    3.0366 C   0  0  0  0  0  0  0  0  0  0  0  0
   -2.8176   27.2783    3.1058 N   0  0  0  0  0  0  0  0  0  0  0  0
   -3.8276   26.7088    3.9940 C   0  0  1  0  0  0  0  0  0  0  0  0
   -5.2344   26.9901    3.4675 C   0  0  0  0  0  0  0  0  0  0  0  0
   -3.5854   25.2177    4.0463 C   0  0  0  0  0  0  0  0  0  0  0  0
   -3.8895   24.4316    5.2985 C   0  0  0  0  0  0  0  0  0  0  0  0
   -2.4620   24.6602    4.8862 C   0  0  0  0  0  0  0  0  0  0  0  0
   -1.7702   29.1232    1.9738 C   0  0  0  0  0  0  0  0  0  0  0  0
  1  2  1  0
  2  3  2  0
  2  4  1  0
  4  5  1  0
  5  6  2  0
  6  7  1  0
  7  8  2  0
  8  9  1  0
  9 10  1  0
 10 11  1  0
 11 12  1  6
 11 13  1  0
 13 14  1  0
 14 15  1  0
  9 16  2  0
 16  5  1  0
 15 13  1  0
M  END
>  <Energy>  (1274) 
10.080806586237111

>  <Energy_Delta>  (1274) 
0.083633759855089806

>  <std_smi>  (1274) 
CC(=O)Nc1cccc(NC(C)C2CC2)c1

>  <enum_smi>  (1274) 
CC(=O)Nc1cccc(N[C@@H](C)C2CC2)c1

>  <enum_code>  (1274) 
C

>  <parent_uuid>  (1274) 
80177037-97d9-4251-9583-a2fb747585df

>  <o3da_score>  (1274) 
85.010053884505979

>  <o3da_score_rel>  (1274) 
0.33843737612469738

>  <o3da_align>  (1274) 
0.51498239749154273

>  <RMSD>  (1274) 
0.28170275647380527

>  <CONVERGED>  (1274) 
0

>  <ENERGY>  (1274) 
9.9971728262161932

$$$$
16bf8579-8f37-4ab9-a9a8-dd28e5f1981b
     RDKit          3D

 16 17  0  0  0  0  0  0  0  0999 V2000
   -7.6250   22.2087    2.5412 C   0  0  0  0  0  0  0  0  0  0  0  0
   -7.0310   23.5005    3.0457 C   0  0  0  0  0  0  0  0  0  0  0  0
   -7.6629   24.5483    2.9785 O   0  0  0  0  0  0  0  0  0  0  0  0
   -5.7649   23.3174    3.5721 N   0  0  0  0  0  0  0  0  0  0  0  0
   -4.9220   24.2917    4.1488 C   0  0  0  0  0  0  0  0  0  0  0  0
   -3.6607   23.8688    4.5761 C   0  0  0  0  0  0  0  0  0  0  0  0
   -2.7800   24.7717    5.1680 C   0  0  0  0  0  0  0  0  0  0  0  0
   -3.1491   26.1090    5.3281 C   0  0  0  0  0  0  0  0  0  0  0  0
   -4.3892   26.5730    4.8810 C   0  0  0  0  0  0  0  0  0  0  0  0
   -4.8414   27.8794    5.0717 N   0  0  0  0  0  0  0  0  0  0  0  0
   -3.9348   29.0054    5.2730 C   0  0  1  0  0  0  0  0  0  0  0  0
   -3.2159   29.3634    3.9727 C   0  0  0  0  0  0  0  0  0  0  0  0
   -4.7707   30.1750    5.7392 C   0  0  0  0  0  0  0  0  0  0  0  0
   -5.2462   30.2455    7.1699 C   0  0  0  0  0  0  0  0  0  0  0  0
   -4.1977   31.2058    6.6814 C   0  0  0  0  0  0  0  0  0  0  0  0
   -5.2764   25.6341    4.3211 C   0  0  0  0  0  0  0  0  0  0  0  0
  1  2  1  0
  2  3  2  0
  2  4  1  0
  4  5  1  0
  5  6  2  0
  6  7  1  0
  7  8  2  0
  8  9  1  0
  9 10  1  0
 10 11  1  0
 11 12  1  6
 11 13  1  0
 13 14  1  0
 14 15  1  0
  9 16  2  0
 16  5  1  0
 15 13  1  0
M  END
>  <Energy>  (1275) 
10.414747311906881

>  <Energy_Delta>  (1275) 
0.41757448552485954

>  <std_smi>  (1275) 
CC(=O)Nc1cccc(NC(C)C2CC2)c1

>  <enum_smi>  (1275) 
CC(=O)Nc1cccc(N[C@@H](C)C2CC2)c1

>  <enum_code>  (1275) 
C

>  <parent_uuid>  (1275) 
80177037-97d9-4251-9583-a2fb747585df

>  <o3da_score>  (1275) 
84.713764089156143

>  <o3da_score_rel>  (1275) 
0.3372578033997235

>  <o3da_align>  (1275) 
0.38308394504228016

>  <RMSD>  (1275) 
0.39745179962898269

>  <CONVERGED>  (1275) 
0

>  <ENERGY>  (1275) 
10.264461046158059

$$$$
16bf8579-8f37-4ab9-a9a8-dd28e5f1981b
     RDKit          3D

 16 17  0  0  0  0  0  0  0  0999 V2000
   -7.8070   22.2850    2.8302 C   0  0  0  0  0  0  0  0  0  0  0  0
   -7.1336   23.5700    3.2450 C   0  0  0  0  0  0  0  0  0  0  0  0
   -7.7340   24.6368    3.1837 O   0  0  0  0  0  0  0  0  0  0  0  0
   -5.8460   23.3597    3.7043 N   0  0  0  0  0  0  0  0  0  0  0  0
   -4.9248   24.3280    4.1582 C   0  0  0  0  0  0  0  0  0  0  0  0
   -3.6966   23.8632    4.6352 C   0  0  0  0  0  0  0  0  0  0  0  0
   -2.7313   24.7621    5.0842 C   0  0  0  0  0  0  0  0  0  0  0  0
   -2.9900   26.1344    5.0695 C   0  0  0  0  0  0  0  0  0  0  0  0
   -4.2202   26.6315    4.6310 C   0  0  0  0  0  0  0  0  0  0  0  0
   -4.5158   27.9946    4.5231 N   0  0  0  0  0  0  0  0  0  0  0  0
   -3.8024   28.9981    5.3090 C   0  0  1  0  0  0  0  0  0  0  0  0
   -2.6572   29.5844    4.4839 C   0  0  0  0  0  0  0  0  0  0  0  0
   -4.7857   30.0902    5.6647 C   0  0  0  0  0  0  0  0  0  0  0  0
   -4.6459   30.8657    6.9515 C   0  0  0  0  0  0  0  0  0  0  0  0
   -5.7745   29.8860    6.7869 C   0  0  0  0  0  0  0  0  0  0  0  0
   -5.1645   25.7064    4.1457 C   0  0  0  0  0  0  0  0  0  0  0  0
  1  2  1  0
  2  3  2  0
  2  4  1  0
  4  5  1  0
  5  6  2  0
  6  7  1  0
  7  8  2  0
  8  9  1  0
  9 10  1  0
 10 11  1  0
 11 12  1  6
 11 13  1  0
 13 14  1  0
 14 15  1  0
  9 16  2  0
 16  5  1  0
 15 13  1  0
M  END
>  <Energy>  (1276) 
10.446877715367634

>  <Energy_Delta>  (1276) 
0.44970488898561278

>  <std_smi>  (1276) 
CC(=O)Nc1cccc(NC(C)C2CC2)c1

>  <enum_smi>  (1276) 
CC(=O)Nc1cccc(N[C@@H](C)C2CC2)c1

>  <enum_code>  (1276) 
C

>  <parent_uuid>  (1276) 
80177037-97d9-4251-9583-a2fb747585df

>  <o3da_score>  (1276) 
84.744758979726072

>  <o3da_score_rel>  (1276) 
0.33738119856251225

>  <o3da_align>  (1276) 
0.3817906603233161

>  <RMSD>  (1276) 
0.015689452513169402

>  <CONVERGED>  (1276) 
0

>  <ENERGY>  (1276) 
10.414747306144484

$$$$
16bf8579-8f37-4ab9-a9a8-dd28e5f1981b
     RDKit          3D

 16 17  0  0  0  0  0  0  0  0999 V2000
    0.7439   32.0725   -0.8111 C   0  0  0  0  0  0  0  0  0  0  0  0
   -0.0358   32.0526    0.4804 C   0  0  0  0  0  0  0  0  0  0  0  0
   -0.1126   33.0562    1.1797 O   0  0  0  0  0  0  0  0  0  0  0  0
   -0.5829   30.8090    0.7394 N   0  0  0  0  0  0  0  0  0  0  0  0
   -1.3571   30.4250    1.8553 C   0  0  0  0  0  0  0  0  0  0  0  0
   -1.6907   31.2791    2.9017 C   0  0  0  0  0  0  0  0  0  0  0  0
   -2.4403   30.8035    3.9772 C   0  0  0  0  0  0  0  0  0  0  0  0
   -2.8746   29.4753    4.0071 C   0  0  0  0  0  0  0  0  0  0  0  0
   -2.5973   28.6031    2.9526 C   0  0  0  0  0  0  0  0  0  0  0  0
   -2.9433   27.2519    2.9438 N   0  0  0  0  0  0  0  0  0  0  0  0
   -3.9713   26.6914    3.8194 C   0  0  1  0  0  0  0  0  0  0  0  0
   -5.3639   27.0837    3.3219 C   0  0  0  0  0  0  0  0  0  0  0  0
   -3.8632   25.1805    3.8907 C   0  0  0  0  0  0  0  0  0  0  0  0
   -3.6260   24.3027    2.6824 C   0  0  0  0  0  0  0  0  0  0  0  0
   -2.5496   24.4516    3.7247 C   0  0  0  0  0  0  0  0  0  0  0  0
   -1.8050   29.0941    1.8995 C   0  0  0  0  0  0  0  0  0  0  0  0
  1  2  1  0
  2  3  2  0
  2  4  1  0
  4  5  1  0
  5  6  2  0
  6  7  1  0
  7  8  2  0
  8  9  1  0
  9 10  1  0
 10 11  1  0
 11 12  1  6
 11 13  1  0
 13 14  1  0
 14 15  1  0
  9 16  2  0
 16  5  1  0
 15 13  1  0
M  END
>  <Energy>  (1277) 
11.417854185365069

>  <Energy_Delta>  (1277) 
1.4206813589830478

>  <std_smi>  (1277) 
CC(=O)Nc1cccc(NC(C)C2CC2)c1

>  <enum_smi>  (1277) 
CC(=O)Nc1cccc(N[C@@H](C)C2CC2)c1

>  <enum_code>  (1277) 
C

>  <parent_uuid>  (1277) 
80177037-97d9-4251-9583-a2fb747585df

>  <o3da_score>  (1277) 
80.653853585102254

>  <o3da_score_rel>  (1277) 
0.32109470979482074

>  <o3da_align>  (1277) 
0.47875646064196298

>  <RMSD>  (1277) 
0.017154648750862388

>  <CONVERGED>  (1277) 
0

>  <ENERGY>  (1277) 
11.426179679677446

$$$$
16bf8579-8f37-4ab9-a9a8-dd28e5f1981b
     RDKit          3D

 16 17  0  0  0  0  0  0  0  0999 V2000
    0.8309   31.9514   -0.7551 C   0  0  0  0  0  0  0  0  0  0  0  0
   -0.0236   32.0077    0.4871 C   0  0  0  0  0  0  0  0  0  0  0  0
   -0.1785   33.0623    1.0921 O   0  0  0  0  0  0  0  0  0  0  0  0
   -0.5399   30.7686    0.8207 N   0  0  0  0  0  0  0  0  0  0  0  0
   -1.3652   30.4479    1.9198 C   0  0  0  0  0  0  0  0  0  0  0  0
   -1.7916   31.3721    2.8683 C   0  0  0  0  0  0  0  0  0  0  0  0
   -2.5867   30.9577    3.9365 C   0  0  0  0  0  0  0  0  0  0  0  0
   -2.9736   29.6200    4.0558 C   0  0  0  0  0  0  0  0  0  0  0  0
   -2.6022   28.6747    3.0976 C   0  0  0  0  0  0  0  0  0  0  0  0
   -2.8979   27.3144    3.1854 N   0  0  0  0  0  0  0  0  0  0  0  0
   -3.9556   26.7874    4.0463 C   0  0  1  0  0  0  0  0  0  0  0  0
   -5.3291   27.0790    3.4388 C   0  0  0  0  0  0  0  0  0  0  0  0
   -3.7973   25.2935    4.2533 C   0  0  0  0  0  0  0  0  0  0  0  0
   -2.4506   24.6079    4.2252 C   0  0  0  0  0  0  0  0  0  0  0  0
   -3.4565   24.3281    3.1403 C   0  0  0  0  0  0  0  0  0  0  0  0
   -1.7664   29.1080    2.0528 C   0  0  0  0  0  0  0  0  0  0  0  0
  1  2  1  0
  2  3  2  0
  2  4  1  0
  4  5  1  0
  5  6  2  0
  6  7  1  0
  7  8  2  0
  8  9  1  0
  9 10  1  0
 10 11  1  0
 11 12  1  6
 11 13  1  0
 13 14  1  0
 14 15  1  0
  9 16  2  0
 16  5  1  0
 15 13  1  0
M  END
>  <Energy>  (1278) 
11.417854185605377

>  <Energy_Delta>  (1278) 
1.4206813592233551

>  <std_smi>  (1278) 
CC(=O)Nc1cccc(NC(C)C2CC2)c1

>  <enum_smi>  (1278) 
CC(=O)Nc1cccc(N[C@@H](C)C2CC2)c1

>  <enum_code>  (1278) 
C

>  <parent_uuid>  (1278) 
80177037-97d9-4251-9583-a2fb747585df

>  <o3da_score>  (1278) 
83.132078812047666

>  <o3da_score_rel>  (1278) 
0.33096088449920247

>  <o3da_align>  (1278) 
0.56565181080415661

>  <RMSD>  (1278) 
0.017166648867069388

>  <CONVERGED>  (1278) 
0

>  <ENERGY>  (1278) 
11.42617967967931

$$$$
16bf8579-8f37-4ab9-a9a8-dd28e5f1981b
     RDKit          3D

 16 17  0  0  0  0  0  0  0  0999 V2000
    0.4662   23.0147    6.2556 C   0  0  0  0  0  0  0  0  0  0  0  0
   -0.9184   23.0387    5.6568 C   0  0  0  0  0  0  0  0  0  0  0  0
   -1.4588   22.0017    5.2899 O   0  0  0  0  0  0  0  0  0  0  0  0
   -1.4465   24.3165    5.6179 N   0  0  0  0  0  0  0  0  0  0  0  0
   -2.7149   24.7105    5.1385 C   0  0  0  0  0  0  0  0  0  0  0  0
   -3.6566   23.8259    4.6193 C   0  0  0  0  0  0  0  0  0  0  0  0
   -4.8957   24.2990    4.1912 C   0  0  0  0  0  0  0  0  0  0  0  0
   -5.1904   25.6611    4.2656 C   0  0  0  0  0  0  0  0  0  0  0  0
   -4.2506   26.5852    4.7399 C   0  0  0  0  0  0  0  0  0  0  0  0
   -4.6335   27.9229    4.8404 N   0  0  0  0  0  0  0  0  0  0  0  0
   -3.6733   29.0164    4.9749 C   0  0  1  0  0  0  0  0  0  0  0  0
   -2.9570   29.2609    3.6453 C   0  0  0  0  0  0  0  0  0  0  0  0
   -4.3563   30.2917    5.4284 C   0  0  0  0  0  0  0  0  0  0  0  0
   -5.6707   30.7804    4.8625 C   0  0  0  0  0  0  0  0  0  0  0  0
   -5.6029   30.2858    6.2831 C   0  0  0  0  0  0  0  0  0  0  0  0
   -3.0283   26.0807    5.2045 C   0  0  0  0  0  0  0  0  0  0  0  0
  1  2  1  0
  2  3  2  0
  2  4  1  0
  4  5  1  0
  5  6  2  0
  6  7  1  0
  7  8  2  0
  8  9  1  0
  9 10  1  0
 10 11  1  0
 11 12  1  6
 11 13  1  0
 13 14  1  0
 14 15  1  0
  9 16  2  0
 16  5  1  0
 15 13  1  0
M  END
>  <Energy>  (1279) 
11.482468389165593

>  <Energy_Delta>  (1279) 
1.4852955627835716

>  <std_smi>  (1279) 
CC(=O)Nc1cccc(NC(C)C2CC2)c1

>  <enum_smi>  (1279) 
CC(=O)Nc1cccc(N[C@@H](C)C2CC2)c1

>  <enum_code>  (1279) 
C

>  <parent_uuid>  (1279) 
80177037-97d9-4251-9583-a2fb747585df

>  <o3da_score>  (1279) 
80.273938789920692

>  <o3da_score_rel>  (1279) 
0.31958221379514895

>  <o3da_align>  (1279) 
0.12269428776311389

>  <RMSD>  (1279) 
0.017285177042553231

>  <CONVERGED>  (1279) 
0

>  <ENERGY>  (1279) 
11.491230457089481

$$$$
16bf8579-8f37-4ab9-a9a8-dd28e5f1981b
     RDKit          3D

 16 17  0  0  0  0  0  0  0  0999 V2000
   -7.0665   21.4632    2.9942 C   0  0  0  0  0  0  0  0  0  0  0  0
   -5.7841   22.0366    3.5448 C   0  0  0  0  0  0  0  0  0  0  0  0
   -4.8406   21.3052    3.8221 O   0  0  0  0  0  0  0  0  0  0  0  0
   -5.8515   23.4094    3.6990 N   0  0  0  0  0  0  0  0  0  0  0  0
   -4.8491   24.2697    4.1962 C   0  0  0  0  0  0  0  0  0  0  0  0
   -3.5971   23.8397    4.6245 C   0  0  0  0  0  0  0  0  0  0  0  0
   -2.6774   24.7611    5.1246 C   0  0  0  0  0  0  0  0  0  0  0  0
   -2.9972   26.1202    5.1859 C   0  0  0  0  0  0  0  0  0  0  0  0
   -4.2268   26.5926    4.7226 C   0  0  0  0  0  0  0  0  0  0  0  0
   -4.6345   27.9222    4.8116 N   0  0  0  0  0  0  0  0  0  0  0  0
   -3.7020   29.0326    5.0028 C   0  0  1  0  0  0  0  0  0  0  0  0
   -2.9218   29.2960    3.7152 C   0  0  0  0  0  0  0  0  0  0  0  0
   -4.5313   30.1980    5.4961 C   0  0  0  0  0  0  0  0  0  0  0  0
   -4.2119   31.6474    5.2124 C   0  0  0  0  0  0  0  0  0  0  0  0
   -5.4238   31.0109    4.5862 C   0  0  0  0  0  0  0  0  0  0  0  0
   -5.1526   25.6400    4.2614 C   0  0  0  0  0  0  0  0  0  0  0  0
  1  2  1  0
  2  3  2  0
  2  4  1  0
  4  5  1  0
  5  6  2  0
  6  7  1  0
  7  8  2  0
  8  9  1  0
  9 10  1  0
 10 11  1  0
 11 12  1  6
 11 13  1  0
 13 14  1  0
 14 15  1  0
  9 16  2  0
 16  5  1  0
 15 13  1  0
M  END
>  <Energy>  (1280) 
12.244415691039498

>  <Energy_Delta>  (1280) 
2.2472428646574762

>  <std_smi>  (1280) 
CC(=O)Nc1cccc(NC(C)C2CC2)c1

>  <enum_smi>  (1280) 
CC(=O)Nc1cccc(N[C@@H](C)C2CC2)c1

>  <enum_code>  (1280) 
C

>  <parent_uuid>  (1280) 
80177037-97d9-4251-9583-a2fb747585df

>  <o3da_score>  (1280) 
80.238374269441664

>  <o3da_score_rel>  (1280) 
0.31944062627174369

>  <o3da_align>  (1280) 
0.12825069123321609

>  <RMSD>  (1280) 
6.9984686487278494e-05

>  <CONVERGED>  (1280) 
0

>  <ENERGY>  (1280) 
12.244415690314277

$$$$
16bf8579-8f37-4ab9-a9a8-dd28e5f1981b
     RDKit          3D

 16 17  0  0  0  0  0  0  0  0999 V2000
    0.7996   24.0621    6.4125 C   0  0  0  0  0  0  0  0  0  0  0  0
   -0.3420   24.9741    6.0368 C   0  0  0  0  0  0  0  0  0  0  0  0
   -0.2428   26.1882    6.1702 O   0  0  0  0  0  0  0  0  0  0  0  0
   -1.4372   24.2675    5.5727 N   0  0  0  0  0  0  0  0  0  0  0  0
   -2.6821   24.7829    5.1501 C   0  0  0  0  0  0  0  0  0  0  0  0
   -3.6228   23.8611    4.6809 C   0  0  0  0  0  0  0  0  0  0  0  0
   -4.8781   24.2914    4.2594 C   0  0  0  0  0  0  0  0  0  0  0  0
   -5.1943   25.6495    4.2942 C   0  0  0  0  0  0  0  0  0  0  0  0
   -4.2639   26.6050    4.7259 C   0  0  0  0  0  0  0  0  0  0  0  0
   -4.6751   27.9355    4.7964 N   0  0  0  0  0  0  0  0  0  0  0  0
   -3.7435   29.0503    4.9712 C   0  0  1  0  0  0  0  0  0  0  0  0
   -2.9559   29.2905    3.6834 C   0  0  0  0  0  0  0  0  0  0  0  0
   -4.5782   30.2245    5.4360 C   0  0  0  0  0  0  0  0  0  0  0  0
   -5.4708   31.0137    4.5054 C   0  0  0  0  0  0  0  0  0  0  0  0
   -4.2631   31.6684    5.1205 C   0  0  0  0  0  0  0  0  0  0  0  0
   -3.0206   26.1418    5.1835 C   0  0  0  0  0  0  0  0  0  0  0  0
  1  2  1  0
  2  3  2  0
  2  4  1  0
  4  5  1  0
  5  6  2  0
  6  7  1  0
  7  8  2  0
  8  9  1  0
  9 10  1  0
 10 11  1  0
 11 12  1  6
 11 13  1  0
 13 14  1  0
 14 15  1  0
  9 16  2  0
 16  5  1  0
 15 13  1  0
M  END
>  <Energy>  (1281) 
12.25233428059858

>  <Energy_Delta>  (1281) 
2.2551614542165588

>  <std_smi>  (1281) 
CC(=O)Nc1cccc(NC(C)C2CC2)c1

>  <enum_smi>  (1281) 
CC(=O)Nc1cccc(N[C@@H](C)C2CC2)c1

>  <enum_code>  (1281) 
C

>  <parent_uuid>  (1281) 
80177037-97d9-4251-9583-a2fb747585df

>  <o3da_score>  (1281) 
89.050618037821849

>  <o3da_score_rel>  (1281) 
0.35452344909636702

>  <o3da_align>  (1281) 
0.13927686015261623

>  <RMSD>  (1281) 
0.014976192799632453

>  <CONVERGED>  (1281) 
0

>  <ENERGY>  (1281) 
12.282841618592578

$$$$
16bf8579-8f37-4ab9-a9a8-dd28e5f1981b
     RDKit          3D

 16 17  0  0  0  0  0  0  0  0999 V2000
    0.7823   24.0425    6.4479 C   0  0  0  0  0  0  0  0  0  0  0  0
   -0.3532   24.9591    6.0649 C   0  0  0  0  0  0  0  0  0  0  0  0
   -0.2490   26.1730    6.1969 O   0  0  0  0  0  0  0  0  0  0  0  0
   -1.4492   24.2567    5.5965 N   0  0  0  0  0  0  0  0  0  0  0  0
   -2.6896   24.7771    5.1667 C   0  0  0  0  0  0  0  0  0  0  0  0
   -3.6321   23.8589    4.6943 C   0  0  0  0  0  0  0  0  0  0  0  0
   -4.8834   24.2942    4.2658 C   0  0  0  0  0  0  0  0  0  0  0  0
   -5.1934   25.6538    4.2968 C   0  0  0  0  0  0  0  0  0  0  0  0
   -4.2609   26.6057    4.7317 C   0  0  0  0  0  0  0  0  0  0  0  0
   -4.6663   27.9382    4.7979 N   0  0  0  0  0  0  0  0  0  0  0  0
   -3.7306   29.0491    4.9756 C   0  0  1  0  0  0  0  0  0  0  0  0
   -2.9354   29.2836    3.6915 C   0  0  0  0  0  0  0  0  0  0  0  0
   -4.5622   30.2279    5.4343 C   0  0  0  0  0  0  0  0  0  0  0  0
   -4.2389   31.6697    5.1181 C   0  0  0  0  0  0  0  0  0  0  0  0
   -5.4465   31.0196    4.4980 C   0  0  0  0  0  0  0  0  0  0  0  0
   -3.0221   26.1377    5.1963 C   0  0  0  0  0  0  0  0  0  0  0  0
  1  2  1  0
  2  3  2  0
  2  4  1  0
  4  5  1  0
  5  6  2  0
  6  7  1  0
  7  8  2  0
  8  9  1  0
  9 10  1  0
 10 11  1  0
 11 12  1  6
 11 13  1  0
 13 14  1  0
 14 15  1  0
  9 16  2  0
 16  5  1  0
 15 13  1  0
M  END
>  <Energy>  (1282) 
12.282841619445707

>  <Energy_Delta>  (1282) 
2.2856687930636852

>  <std_smi>  (1282) 
CC(=O)Nc1cccc(NC(C)C2CC2)c1

>  <enum_smi>  (1282) 
CC(=O)Nc1cccc(N[C@@H](C)C2CC2)c1

>  <enum_code>  (1282) 
C

>  <parent_uuid>  (1282) 
80177037-97d9-4251-9583-a2fb747585df

>  <o3da_score>  (1282) 
89.029204194795895

>  <o3da_score_rel>  (1282) 
0.35443819747593752

>  <o3da_align>  (1282) 
0.14244887253405369

>  <RMSD>  (1282) 
6.6657502793563453e-05

>  <CONVERGED>  (1282) 
0

>  <ENERGY>  (1282) 
12.282841618492705

$$$$
16bf8579-8f37-4ab9-a9a8-dd28e5f1981b
     RDKit          3D

 16 17  0  0  0  0  0  0  0  0999 V2000
    0.7311   31.9702   -0.8100 C   0  0  0  0  0  0  0  0  0  0  0  0
   -0.0441   32.0042    0.4839 C   0  0  0  0  0  0  0  0  0  0  0  0
   -0.0869   33.0257    1.1598 O   0  0  0  0  0  0  0  0  0  0  0  0
   -0.6248   30.7835    0.7762 N   0  0  0  0  0  0  0  0  0  0  0  0
   -1.4191   30.4547    1.8956 C   0  0  0  0  0  0  0  0  0  0  0  0
   -1.7663   31.3576    2.8953 C   0  0  0  0  0  0  0  0  0  0  0  0
   -2.5751   30.9467    3.9545 C   0  0  0  0  0  0  0  0  0  0  0  0
   -3.0340   29.6284    4.0272 C   0  0  0  0  0  0  0  0  0  0  0  0
   -2.6758   28.6866    3.0611 C   0  0  0  0  0  0  0  0  0  0  0  0
   -3.1384   27.3746    3.0349 N   0  0  0  0  0  0  0  0  0  0  0  0
   -3.8718   26.7425    4.1260 C   0  0  1  0  0  0  0  0  0  0  0  0
   -4.7889   25.6759    3.5160 C   0  0  0  0  0  0  0  0  0  0  0  0
   -2.9771   26.1091    5.1669 C   0  0  0  0  0  0  0  0  0  0  0  0
   -1.8395   25.1817    4.8006 C   0  0  0  0  0  0  0  0  0  0  0  0
   -1.5438   26.5151    5.4292 C   0  0  0  0  0  0  0  0  0  0  0  0
   -1.8867   29.1330    1.9859 C   0  0  0  0  0  0  0  0  0  0  0  0
  1  2  1  0
  2  3  2  0
  2  4  1  0
  4  5  1  0
  5  6  2  0
  6  7  1  0
  7  8  2  0
  8  9  1  0
  9 10  1  0
 10 11  1  0
 11 12  1  6
 11 13  1  0
 13 14  1  0
 14 15  1  0
  9 16  2  0
 16  5  1  0
 15 13  1  0
M  END
>  <Energy>  (1283) 
12.295228394344193

>  <Energy_Delta>  (1283) 
2.2980555679621713

>  <std_smi>  (1283) 
CC(=O)Nc1cccc(NC(C)C2CC2)c1

>  <enum_smi>  (1283) 
CC(=O)Nc1cccc(N[C@@H](C)C2CC2)c1

>  <enum_code>  (1283) 
C

>  <parent_uuid>  (1283) 
80177037-97d9-4251-9583-a2fb747585df

>  <o3da_score>  (1283) 
92.46726120580081

>  <o3da_score_rel>  (1283) 
0.36812560197226263

>  <o3da_align>  (1283) 
0.50115190718753522

>  <RMSD>  (1283) 
7.3384913319243978e-05

>  <CONVERGED>  (1283) 
0

>  <ENERGY>  (1283) 
12.295228394153185

$$$$
16bf8579-8f37-4ab9-a9a8-dd28e5f1981b
     RDKit          3D

 16 17  0  0  0  0  0  0  0  0999 V2000
    0.4715   23.0203    6.2472 C   0  0  0  0  0  0  0  0  0  0  0  0
   -0.9152   23.0424    5.6530 C   0  0  0  0  0  0  0  0  0  0  0  0
   -1.4562   22.0044    5.2899 O   0  0  0  0  0  0  0  0  0  0  0  0
   -1.4442   24.3198    5.6137 N   0  0  0  0  0  0  0  0  0  0  0  0
   -2.7142   24.7122    5.1371 C   0  0  0  0  0  0  0  0  0  0  0  0
   -3.6564   23.8264    4.6209 C   0  0  0  0  0  0  0  0  0  0  0  0
   -4.8967   24.2983    4.1946 C   0  0  0  0  0  0  0  0  0  0  0  0
   -5.1924   25.6602    4.2683 C   0  0  0  0  0  0  0  0  0  0  0  0
   -4.2526   26.5851    4.7404 C   0  0  0  0  0  0  0  0  0  0  0  0
   -4.6336   27.9219    4.8406 N   0  0  0  0  0  0  0  0  0  0  0  0
   -3.6781   29.0202    4.9732 C   0  0  1  0  0  0  0  0  0  0  0  0
   -2.9381   29.2407    3.6543 C   0  0  0  0  0  0  0  0  0  0  0  0
   -4.4693   30.2106    5.4685 C   0  0  0  0  0  0  0  0  0  0  0  0
   -5.3775   31.0194    4.5707 C   0  0  0  0  0  0  0  0  0  0  0  0
   -4.1349   31.6476    5.1424 C   0  0  0  0  0  0  0  0  0  0  0  0
   -3.0287   26.0820    5.2027 C   0  0  0  0  0  0  0  0  0  0  0  0
  1  2  1  0
  2  3  2  0
  2  4  1  0
  4  5  1  0
  5  6  2  0
  6  7  1  0
  7  8  2  0
  8  9  1  0
  9 10  1  0
 10 11  1  0
 11 12  1  6
 11 13  1  0
 13 14  1  0
 14 15  1  0
  9 16  2  0
 16  5  1  0
 15 13  1  0
M  END
>  <Energy>  (1284) 
12.297972799254271

>  <Energy_Delta>  (1284) 
2.3007999728722499

>  <std_smi>  (1284) 
CC(=O)Nc1cccc(NC(C)C2CC2)c1

>  <enum_smi>  (1284) 
CC(=O)Nc1cccc(N[C@@H](C)C2CC2)c1

>  <enum_code>  (1284) 
C

>  <parent_uuid>  (1284) 
80177037-97d9-4251-9583-a2fb747585df

>  <o3da_score>  (1284) 
80.205776769710297

>  <o3da_score_rel>  (1284) 
0.31931085088903072

>  <o3da_align>  (1284) 
0.13167853979703922

>  <RMSD>  (1284) 
0.017303494979625831

>  <CONVERGED>  (1284) 
0

>  <ENERGY>  (1284) 
12.306211288961729

$$$$
16bf8579-8f37-4ab9-a9a8-dd28e5f1981b
     RDKit          3D

 16 17  0  0  0  0  0  0  0  0999 V2000
   -0.5384   30.6027    0.3255 C   0  0  0  0  0  0  0  0  0  0  0  0
   -1.3327   30.4075    1.5933 C   0  0  0  0  0  0  0  0  0  0  0  0
   -1.4308   31.3116    2.4150 O   0  0  0  0  0  0  0  0  0  0  0  0
   -1.9089   29.1518    1.6587 N   0  0  0  0  0  0  0  0  0  0  0  0
   -2.7231   28.6312    2.6873 C   0  0  0  0  0  0  0  0  0  0  0  0
   -3.0808   29.3395    3.8301 C   0  0  0  0  0  0  0  0  0  0  0  0
   -3.9116   28.7508    4.7830 C   0  0  0  0  0  0  0  0  0  0  0  0
   -4.3780   27.4449    4.6080 C   0  0  0  0  0  0  0  0  0  0  0  0
   -4.0010   26.6884    3.4965 C   0  0  0  0  0  0  0  0  0  0  0  0
   -4.4787   25.4048    3.2244 N   0  0  0  0  0  0  0  0  0  0  0  0
   -5.0452   24.5370    4.2584 C   0  0  1  0  0  0  0  0  0  0  0  0
   -5.8970   23.4762    3.5578 C   0  0  0  0  0  0  0  0  0  0  0  0
   -3.9208   23.9894    5.1065 C   0  0  0  0  0  0  0  0  0  0  0  0
   -3.8713   22.5785    5.6474 C   0  0  0  0  0  0  0  0  0  0  0  0
   -2.9122   23.0001    4.5680 C   0  0  0  0  0  0  0  0  0  0  0  0
   -3.1978   27.3184    2.5289 C   0  0  0  0  0  0  0  0  0  0  0  0
  1  2  1  0
  2  3  2  0
  2  4  1  0
  4  5  1  0
  5  6  2  0
  6  7  1  0
  7  8  2  0
  8  9  1  0
  9 10  1  0
 10 11  1  0
 11 12  1  6
 11 13  1  0
 13 14  1  0
 14 15  1  0
  9 16  2  0
 16  5  1  0
 15 13  1  0
M  END
>  <Energy>  (1285) 
12.43300017249282

>  <Energy_Delta>  (1285) 
2.4358273461107984

>  <std_smi>  (1285) 
CC(=O)Nc1cccc(NC(C)C2CC2)c1

>  <enum_smi>  (1285) 
CC(=O)Nc1cccc(N[C@@H](C)C2CC2)c1

>  <enum_code>  (1285) 
C

>  <parent_uuid>  (1285) 
80177037-97d9-4251-9583-a2fb747585df

>  <o3da_score>  (1285) 
81.866574568040093

>  <o3da_score_rel>  (1285) 
0.32592272823125712

>  <o3da_align>  (1285) 
0.3741526908815076

>  <RMSD>  (1285) 
0.017295086671860128

>  <CONVERGED>  (1285) 
0

>  <ENERGY>  (1285) 
12.440702592049799

$$$$
16bf8579-8f37-4ab9-a9a8-dd28e5f1981b
     RDKit          3D

 16 17  0  0  0  0  0  0  0  0999 V2000
    0.7284   31.9422   -0.8787 C   0  0  0  0  0  0  0  0  0  0  0  0
   -0.0142   31.9621    0.4345 C   0  0  0  0  0  0  0  0  0  0  0  0
    0.0187   32.9524    1.1559 O   0  0  0  0  0  0  0  0  0  0  0  0
   -0.6593   30.7650    0.6871 N   0  0  0  0  0  0  0  0  0  0  0  0
   -1.4469   30.4324    1.8101 C   0  0  0  0  0  0  0  0  0  0  0  0
   -1.7199   31.3086    2.8557 C   0  0  0  0  0  0  0  0  0  0  0  0
   -2.5321   30.8999    3.9131 C   0  0  0  0  0  0  0  0  0  0  0  0
   -3.0650   29.6080    3.9400 C   0  0  0  0  0  0  0  0  0  0  0  0
   -2.7747   28.6879    2.9307 C   0  0  0  0  0  0  0  0  0  0  0  0
   -3.3229   27.4056    2.8587 N   0  0  0  0  0  0  0  0  0  0  0  0
   -3.8799   26.7181    4.0249 C   0  0  1  0  0  0  0  0  0  0  0  0
   -4.8108   25.6167    3.5129 C   0  0  0  0  0  0  0  0  0  0  0  0
   -2.7436   26.2345    4.8959 C   0  0  0  0  0  0  0  0  0  0  0  0
   -1.8073   25.1300    4.4608 C   0  0  0  0  0  0  0  0  0  0  0  0
   -2.7338   24.9104    5.6255 C   0  0  0  0  0  0  0  0  0  0  0  0
   -1.9886   29.1369    1.8542 C   0  0  0  0  0  0  0  0  0  0  0  0
  1  2  1  0
  2  3  2  0
  2  4  1  0
  4  5  1  0
  5  6  2  0
  6  7  1  0
  7  8  2  0
  8  9  1  0
  9 10  1  0
 10 11  1  0
 11 12  1  6
 11 13  1  0
 13 14  1  0
 14 15  1  0
  9 16  2  0
 16  5  1  0
 15 13  1  0
M  END
>  <Energy>  (1286) 
12.433000172638726

>  <Energy_Delta>  (1286) 
2.4358273462567048

>  <std_smi>  (1286) 
CC(=O)Nc1cccc(NC(C)C2CC2)c1

>  <enum_smi>  (1286) 
CC(=O)Nc1cccc(N[C@@H](C)C2CC2)c1

>  <enum_code>  (1286) 
C

>  <parent_uuid>  (1286) 
80177037-97d9-4251-9583-a2fb747585df

>  <o3da_score>  (1286) 
97.701576608748965

>  <o3da_score_rel>  (1286) 
0.38896417211585516

>  <o3da_align>  (1286) 
0.50265956723874095

>  <RMSD>  (1286) 
6.5211730937115667e-05

>  <CONVERGED>  (1286) 
0

>  <ENERGY>  (1286) 
12.433000172136385

$$$$
16bf8579-8f37-4ab9-a9a8-dd28e5f1981b
     RDKit          3D

 16 17  0  0  0  0  0  0  0  0999 V2000
    0.4269   22.8701    6.1857 C   0  0  0  0  0  0  0  0  0  0  0  0
   -1.0308   22.9208    5.7994 C   0  0  0  0  0  0  0  0  0  0  0  0
   -1.6924   21.8920    5.7214 O   0  0  0  0  0  0  0  0  0  0  0  0
   -1.4714   24.2160    5.5962 N   0  0  0  0  0  0  0  0  0  0  0  0
   -2.7665   24.6367    5.2223 C   0  0  0  0  0  0  0  0  0  0  0  0
   -3.8215   23.7645    4.9671 C   0  0  0  0  0  0  0  0  0  0  0  0
   -5.0616   24.2662    4.5761 C   0  0  0  0  0  0  0  0  0  0  0  0
   -5.2549   25.6430    4.4547 C   0  0  0  0  0  0  0  0  0  0  0  0
   -4.2293   26.5514    4.7471 C   0  0  0  0  0  0  0  0  0  0  0  0
   -4.4748   27.9115    4.5468 N   0  0  0  0  0  0  0  0  0  0  0  0
   -3.6662   28.9614    5.1674 C   0  0  1  0  0  0  0  0  0  0  0  0
   -3.9017   30.2540    4.3832 C   0  0  0  0  0  0  0  0  0  0  0  0
   -4.0082   29.0389    6.6373 C   0  0  0  0  0  0  0  0  0  0  0  0
   -5.3517   29.5298    7.1267 C   0  0  0  0  0  0  0  0  0  0  0  0
   -4.1108   30.3275    7.4213 C   0  0  0  0  0  0  0  0  0  0  0  0
   -2.9791   26.0218    5.0952 C   0  0  0  0  0  0  0  0  0  0  0  0
  1  2  1  0
  2  3  2  0
  2  4  1  0
  4  5  1  0
  5  6  2  0
  6  7  1  0
  7  8  2  0
  8  9  1  0
  9 10  1  0
 10 11  1  0
 11 12  1  6
 11 13  1  0
 13 14  1  0
 14 15  1  0
  9 16  2  0
 16  5  1  0
 15 13  1  0
M  END
>  <Energy>  (1287) 
12.483806017409051

>  <Energy_Delta>  (1287) 
2.4866331910270301

>  <std_smi>  (1287) 
CC(=O)Nc1cccc(NC(C)C2CC2)c1

>  <enum_smi>  (1287) 
CC(=O)Nc1cccc(N[C@@H](C)C2CC2)c1

>  <enum_code>  (1287) 
C

>  <parent_uuid>  (1287) 
80177037-97d9-4251-9583-a2fb747585df

>  <o3da_score>  (1287) 
74.949508408807887

>  <o3da_score_rel>  (1287) 
0.29838488283014797

>  <o3da_align>  (1287) 
0.48282826417542662

>  <RMSD>  (1287) 
0.017268206984049912

>  <CONVERGED>  (1287) 
0

>  <ENERGY>  (1287) 
12.475661167419288

$$$$
16bf8579-8f37-4ab9-a9a8-dd28e5f1981b
     RDKit          3D

 16 17  0  0  0  0  0  0  0  0999 V2000
   -7.7303   22.3570    2.6132 C   0  0  0  0  0  0  0  0  0  0  0  0
   -7.0588   23.6344    3.0531 C   0  0  0  0  0  0  0  0  0  0  0  0
   -7.6230   24.7145    2.9241 O   0  0  0  0  0  0  0  0  0  0  0  0
   -5.8099   23.4009    3.6004 N   0  0  0  0  0  0  0  0  0  0  0  0
   -4.9103   24.3501    4.1313 C   0  0  0  0  0  0  0  0  0  0  0  0
   -3.6816   23.8723    4.5941 C   0  0  0  0  0  0  0  0  0  0  0  0
   -2.7489   24.7488    5.1446 C   0  0  0  0  0  0  0  0  0  0  0  0
   -3.0327   26.1137    5.2271 C   0  0  0  0  0  0  0  0  0  0  0  0
   -4.2373   26.6301    4.7422 C   0  0  0  0  0  0  0  0  0  0  0  0
   -4.6057   27.9705    4.8565 N   0  0  0  0  0  0  0  0  0  0  0  0
   -3.6345   29.0537    4.9961 C   0  0  1  0  0  0  0  0  0  0  0  0
   -2.8919   29.2730    3.6784 C   0  0  0  0  0  0  0  0  0  0  0  0
   -4.4082   30.2523    5.4999 C   0  0  0  0  0  0  0  0  0  0  0  0
   -5.3129   31.0729    4.6093 C   0  0  0  0  0  0  0  0  0  0  0  0
   -4.0605   31.6867    5.1752 C   0  0  0  0  0  0  0  0  0  0  0  0
   -5.1790   25.7199    4.2258 C   0  0  0  0  0  0  0  0  0  0  0  0
  1  2  1  0
  2  3  2  0
  2  4  1  0
  4  5  1  0
  5  6  2  0
  6  7  1  0
  7  8  2  0
  8  9  1  0
  9 10  1  0
 10 11  1  0
 11 12  1  6
 11 13  1  0
 13 14  1  0
 14 15  1  0
  9 16  2  0
 16  5  1  0
 15 13  1  0
M  END
>  <Energy>  (1288) 
12.500539323566962

>  <Energy_Delta>  (1288) 
2.5033664971849401

>  <std_smi>  (1288) 
CC(=O)Nc1cccc(NC(C)C2CC2)c1

>  <enum_smi>  (1288) 
CC(=O)Nc1cccc(N[C@@H](C)C2CC2)c1

>  <enum_code>  (1288) 
C

>  <parent_uuid>  (1288) 
80177037-97d9-4251-9583-a2fb747585df

>  <o3da_score>  (1288) 
88.946402435984595

>  <o3da_score_rel>  (1288) 
0.35410855164335547

>  <o3da_align>  (1288) 
0.15067202194404525

>  <RMSD>  (1288) 
0.015094589694334814

>  <CONVERGED>  (1288) 
0

>  <ENERGY>  (1288) 
12.531334097035666

$$$$
16bf8579-8f37-4ab9-a9a8-dd28e5f1981b
     RDKit          3D

 16 17  0  0  0  0  0  0  0  0999 V2000
   -7.7303   22.3570    2.6132 C   0  0  0  0  0  0  0  0  0  0  0  0
   -7.0588   23.6344    3.0531 C   0  0  0  0  0  0  0  0  0  0  0  0
   -7.6230   24.7145    2.9241 O   0  0  0  0  0  0  0  0  0  0  0  0
   -5.8100   23.4009    3.6004 N   0  0  0  0  0  0  0  0  0  0  0  0
   -4.9103   24.3501    4.1313 C   0  0  0  0  0  0  0  0  0  0  0  0
   -3.6816   23.8723    4.5941 C   0  0  0  0  0  0  0  0  0  0  0  0
   -2.7489   24.7488    5.1446 C   0  0  0  0  0  0  0  0  0  0  0  0
   -3.0327   26.1137    5.2271 C   0  0  0  0  0  0  0  0  0  0  0  0
   -4.2373   26.6301    4.7422 C   0  0  0  0  0  0  0  0  0  0  0  0
   -4.6057   27.9705    4.8565 N   0  0  0  0  0  0  0  0  0  0  0  0
   -3.6345   29.0537    4.9962 C   0  0  1  0  0  0  0  0  0  0  0  0
   -2.8919   29.2730    3.6784 C   0  0  0  0  0  0  0  0  0  0  0  0
   -4.4082   30.2523    5.4999 C   0  0  0  0  0  0  0  0  0  0  0  0
   -4.0605   31.6866    5.1753 C   0  0  0  0  0  0  0  0  0  0  0  0
   -5.3130   31.0729    4.6094 C   0  0  0  0  0  0  0  0  0  0  0  0
   -5.1790   25.7199    4.2258 C   0  0  0  0  0  0  0  0  0  0  0  0
  1  2  1  0
  2  3  2  0
  2  4  1  0
  4  5  1  0
  5  6  2  0
  6  7  1  0
  7  8  2  0
  8  9  1  0
  9 10  1  0
 10 11  1  0
 11 12  1  6
 11 13  1  0
 13 14  1  0
 14 15  1  0
  9 16  2  0
 16  5  1  0
 15 13  1  0
M  END
>  <Energy>  (1289) 
12.500539325207212

>  <Energy_Delta>  (1289) 
2.5033664988251907

>  <std_smi>  (1289) 
CC(=O)Nc1cccc(NC(C)C2CC2)c1

>  <enum_smi>  (1289) 
CC(=O)Nc1cccc(N[C@@H](C)C2CC2)c1

>  <enum_code>  (1289) 
C

>  <parent_uuid>  (1289) 
80177037-97d9-4251-9583-a2fb747585df

>  <o3da_score>  (1289) 
88.946498751388361

>  <o3da_score_rel>  (1289) 
0.35410893508897207

>  <o3da_align>  (1289) 
0.15066400098428789

>  <RMSD>  (1289) 
0.015093366158102403

>  <CONVERGED>  (1289) 
0

>  <ENERGY>  (1289) 
12.531334097064089

$$$$
16bf8579-8f37-4ab9-a9a8-dd28e5f1981b
     RDKit          3D

 16 17  0  0  0  0  0  0  0  0999 V2000
    0.8120   24.0014    6.3660 C   0  0  0  0  0  0  0  0  0  0  0  0
   -0.3433   24.9176    6.0457 C   0  0  0  0  0  0  0  0  0  0  0  0
   -0.2541   26.1246    6.2397 O   0  0  0  0  0  0  0  0  0  0  0  0
   -1.4425   24.2244    5.5719 N   0  0  0  0  0  0  0  0  0  0  0  0
   -2.6869   24.7533    5.1646 C   0  0  0  0  0  0  0  0  0  0  0  0
   -3.6700   23.8360    4.7814 C   0  0  0  0  0  0  0  0  0  0  0  0
   -4.9172   24.2816    4.3521 C   0  0  0  0  0  0  0  0  0  0  0  0
   -5.1908   25.6488    4.3156 C   0  0  0  0  0  0  0  0  0  0  0  0
   -4.2411   26.5954    4.7255 C   0  0  0  0  0  0  0  0  0  0  0  0
   -4.5662   27.9479    4.5941 N   0  0  0  0  0  0  0  0  0  0  0  0
   -3.8021   29.0104    5.2522 C   0  0  1  0  0  0  0  0  0  0  0  0
   -4.1200   30.3228    4.5318 C   0  0  0  0  0  0  0  0  0  0  0  0
   -4.1242   29.0063    6.7288 C   0  0  0  0  0  0  0  0  0  0  0  0
   -4.3225   30.2519    7.5631 C   0  0  0  0  0  0  0  0  0  0  0  0
   -5.4961   29.3633    7.2550 C   0  0  0  0  0  0  0  0  0  0  0  0
   -2.9779   26.1229    5.1132 C   0  0  0  0  0  0  0  0  0  0  0  0
  1  2  1  0
  2  3  2  0
  2  4  1  0
  4  5  1  0
  5  6  2  0
  6  7  1  0
  7  8  2  0
  8  9  1  0
  9 10  1  0
 10 11  1  0
 11 12  1  6
 11 13  1  0
 13 14  1  0
 14 15  1  0
  9 16  2  0
 16  5  1  0
 15 13  1  0
M  END
>  <Energy>  (1290) 
12.523211793743782

>  <Energy_Delta>  (1290) 
2.5260389673617603

>  <std_smi>  (1290) 
CC(=O)Nc1cccc(NC(C)C2CC2)c1

>  <enum_smi>  (1290) 
CC(=O)Nc1cccc(N[C@@H](C)C2CC2)c1

>  <enum_code>  (1290) 
C

>  <parent_uuid>  (1290) 
80177037-97d9-4251-9583-a2fb747585df

>  <o3da_score>  (1290) 
82.262091915924103

>  <o3da_score_rel>  (1290) 
0.32749734026022398

>  <o3da_align>  (1290) 
0.18116830962372618

>  <RMSD>  (1290) 
0.015745465904899374

>  <CONVERGED>  (1290) 
0

>  <ENERGY>  (1290) 
12.492090370272535

$$$$
16bf8579-8f37-4ab9-a9a8-dd28e5f1981b
     RDKit          3D

 16 17  0  0  0  0  0  0  0  0999 V2000
   -7.8022   22.3800    2.6948 C   0  0  0  0  0  0  0  0  0  0  0  0
   -7.1164   23.6452    3.1483 C   0  0  0  0  0  0  0  0  0  0  0  0
   -7.6875   24.7268    3.0697 O   0  0  0  0  0  0  0  0  0  0  0  0
   -5.8551   23.4000    3.6602 N   0  0  0  0  0  0  0  0  0  0  0  0
   -4.9313   24.3418    4.1624 C   0  0  0  0  0  0  0  0  0  0  0  0
   -3.7343   23.8437    4.6828 C   0  0  0  0  0  0  0  0  0  0  0  0
   -2.7678   24.7154    5.1802 C   0  0  0  0  0  0  0  0  0  0  0  0
   -2.9947   26.0934    5.1718 C   0  0  0  0  0  0  0  0  0  0  0  0
   -4.1956   26.6230    4.6920 C   0  0  0  0  0  0  0  0  0  0  0  0
   -4.4550   27.9930    4.5924 N   0  0  0  0  0  0  0  0  0  0  0  0
   -3.8101   28.9785    5.4603 C   0  0  1  0  0  0  0  0  0  0  0  0
   -3.9552   30.3489    4.7954 C   0  0  0  0  0  0  0  0  0  0  0  0
   -4.4073   28.8791    6.8451 C   0  0  0  0  0  0  0  0  0  0  0  0
   -4.7156   30.0666    7.7289 C   0  0  0  0  0  0  0  0  0  0  0  0
   -5.8405   29.2662    7.1319 C   0  0  0  0  0  0  0  0  0  0  0  0
   -5.1394   25.7253    4.1572 C   0  0  0  0  0  0  0  0  0  0  0  0
  1  2  1  0
  2  3  2  0
  2  4  1  0
  4  5  1  0
  5  6  2  0
  6  7  1  0
  7  8  2  0
  8  9  1  0
  9 10  1  0
 10 11  1  0
 11 12  1  6
 11 13  1  0
 13 14  1  0
 14 15  1  0
  9 16  2  0
 16  5  1  0
 15 13  1  0
M  END
>  <Energy>  (1291) 
12.674674280437213

>  <Energy_Delta>  (1291) 
2.6775014540551911

>  <std_smi>  (1291) 
CC(=O)Nc1cccc(NC(C)C2CC2)c1

>  <enum_smi>  (1291) 
CC(=O)Nc1cccc(N[C@@H](C)C2CC2)c1

>  <enum_code>  (1291) 
C

>  <parent_uuid>  (1291) 
80177037-97d9-4251-9583-a2fb747585df

>  <o3da_score>  (1291) 
81.321957114875389

>  <o3da_score_rel>  (1291) 
0.32375452701953705

>  <o3da_align>  (1291) 
0.22728104866435889

>  <RMSD>  (1291) 
6.6684785802167883e-05

>  <CONVERGED>  (1291) 
0

>  <ENERGY>  (1291) 
12.674674279689434

$$$$
16bf8579-8f37-4ab9-a9a8-dd28e5f1981b
     RDKit          3D

 16 17  0  0  0  0  0  0  0  0999 V2000
   -7.7959   22.3831    2.6808 C   0  0  0  0  0  0  0  0  0  0  0  0
   -7.1105   23.6476    3.1368 C   0  0  0  0  0  0  0  0  0  0  0  0
   -7.6805   24.7297    3.0570 O   0  0  0  0  0  0  0  0  0  0  0  0
   -5.8509   23.4012    3.6524 N   0  0  0  0  0  0  0  0  0  0  0  0
   -4.9279   24.3421    4.1578 C   0  0  0  0  0  0  0  0  0  0  0  0
   -3.7328   23.8429    4.6816 C   0  0  0  0  0  0  0  0  0  0  0  0
   -2.7671   24.7136    5.1823 C   0  0  0  0  0  0  0  0  0  0  0  0
   -2.9930   26.0918    5.1737 C   0  0  0  0  0  0  0  0  0  0  0  0
   -4.1920   26.6225    4.6905 C   0  0  0  0  0  0  0  0  0  0  0  0
   -4.4501   27.9927    4.5907 N   0  0  0  0  0  0  0  0  0  0  0  0
   -3.8071   28.9774    5.4610 C   0  0  1  0  0  0  0  0  0  0  0  0
   -3.9491   30.3482    4.7961 C   0  0  0  0  0  0  0  0  0  0  0  0
   -4.4085   28.8779    6.8439 C   0  0  0  0  0  0  0  0  0  0  0  0
   -5.8422   29.2660    7.1265 C   0  0  0  0  0  0  0  0  0  0  0  0
   -4.7185   30.0653    7.7273 C   0  0  0  0  0  0  0  0  0  0  0  0
   -5.1350   25.7257    4.1525 C   0  0  0  0  0  0  0  0  0  0  0  0
  1  2  1  0
  2  3  2  0
  2  4  1  0
  4  5  1  0
  5  6  2  0
  6  7  1  0
  7  8  2  0
  8  9  1  0
  9 10  1  0
 10 11  1  0
 11 12  1  6
 11 13  1  0
 13 14  1  0
 14 15  1  0
  9 16  2  0
 16  5  1  0
 15 13  1  0
M  END
>  <Energy>  (1292) 
12.704121377641659

>  <Energy_Delta>  (1292) 
2.7069485512596376

>  <std_smi>  (1292) 
CC(=O)Nc1cccc(NC(C)C2CC2)c1

>  <enum_smi>  (1292) 
CC(=O)Nc1cccc(N[C@@H](C)C2CC2)c1

>  <enum_code>  (1292) 
C

>  <parent_uuid>  (1292) 
80177037-97d9-4251-9583-a2fb747585df

>  <o3da_score>  (1292) 
81.33617659762028

>  <o3da_score_rel>  (1292) 
0.32381113684637669

>  <o3da_align>  (1292) 
0.22662380288514208

>  <RMSD>  (1292) 
0.015526258891605511

>  <CONVERGED>  (1292) 
0

>  <ENERGY>  (1292) 
12.674674279681597

$$$$
16bf8579-8f37-4ab9-a9a8-dd28e5f1981b
     RDKit          3D

 16 17  0  0  0  0  0  0  0  0999 V2000
   -1.2444   34.2447    2.9612 C   0  0  0  0  0  0  0  0  0  0  0  0
   -1.1648   32.8213    2.4672 C   0  0  0  0  0  0  0  0  0  0  0  0
   -0.4952   32.5392    1.4801 O   0  0  0  0  0  0  0  0  0  0  0  0
   -1.9350   31.9611    3.2286 N   0  0  0  0  0  0  0  0  0  0  0  0
   -2.0922   30.5688    3.0589 C   0  0  0  0  0  0  0  0  0  0  0  0
   -1.4470   29.8277    2.0757 C   0  0  0  0  0  0  0  0  0  0  0  0
   -1.6473   28.4505    2.0028 C   0  0  0  0  0  0  0  0  0  0  0  0
   -2.5025   27.8072    2.9037 C   0  0  0  0  0  0  0  0  0  0  0  0
   -3.1981   28.5196    3.8785 C   0  0  0  0  0  0  0  0  0  0  0  0
   -4.0173   27.9556    4.8451 N   0  0  0  0  0  0  0  0  0  0  0  0
   -4.5449   26.5926    4.9032 C   0  0  1  0  0  0  0  0  0  0  0  0
   -5.3839   26.2288    3.6839 C   0  0  0  0  0  0  0  0  0  0  0  0
   -3.4683   25.5831    5.2067 C   0  0  0  0  0  0  0  0  0  0  0  0
   -2.7001   25.6519    6.5052 C   0  0  0  0  0  0  0  0  0  0  0  0
   -3.6771   24.5345    6.2753 C   0  0  0  0  0  0  0  0  0  0  0  0
   -2.9494   29.9040    3.9526 C   0  0  0  0  0  0  0  0  0  0  0  0
  1  2  1  0
  2  3  2  0
  2  4  1  0
  4  5  1  0
  5  6  2  0
  6  7  1  0
  7  8  2  0
  8  9  1  0
  9 10  1  0
 10 11  1  0
 11 12  1  6
 11 13  1  0
 13 14  1  0
 14 15  1  0
  9 16  2  0
 16  5  1  0
 15 13  1  0
M  END
>  <Energy>  (1293) 
14.895946723878776

>  <Energy_Delta>  (1293) 
4.8987738974967545

>  <std_smi>  (1293) 
CC(=O)Nc1cccc(NC(C)C2CC2)c1

>  <enum_smi>  (1293) 
CC(=O)Nc1cccc(N[C@@H](C)C2CC2)c1

>  <enum_code>  (1293) 
C

>  <parent_uuid>  (1293) 
80177037-97d9-4251-9583-a2fb747585df

>  <o3da_score>  (1293) 
86.517418865304521

>  <o3da_score_rel>  (1293) 
0.34443841512717577

>  <o3da_align>  (1293) 
0.67523485077328438

>  <RMSD>  (1293) 
0.16711043611688944

>  <CONVERGED>  (1293) 
0

>  <ENERGY>  (1293) 
15.436902698941738

$$$$
16bf8579-8f37-4ab9-a9a8-dd28e5f1981b
     RDKit          3D

 16 17  0  0  0  0  0  0  0  0999 V2000
    0.5755   32.2249   -0.9293 C   0  0  0  0  0  0  0  0  0  0  0  0
   -0.1427   32.1284    0.3941 C   0  0  0  0  0  0  0  0  0  0  0  0
   -0.2969   33.1216    1.0954 O   0  0  0  0  0  0  0  0  0  0  0  0
   -0.5419   30.8347    0.6770 N   0  0  0  0  0  0  0  0  0  0  0  0
   -1.2243   30.3765    1.8243 C   0  0  0  0  0  0  0  0  0  0  0  0
   -1.6073   31.1952    2.8801 C   0  0  0  0  0  0  0  0  0  0  0  0
   -2.2592   30.6451    3.9822 C   0  0  0  0  0  0  0  0  0  0  0  0
   -2.5435   29.2762    4.0312 C   0  0  0  0  0  0  0  0  0  0  0  0
   -2.2124   28.4287    2.9759 C   0  0  0  0  0  0  0  0  0  0  0  0
   -2.3994   27.0528    2.9639 N   0  0  0  0  0  0  0  0  0  0  0  0
   -3.1951   26.2411    3.8846 C   0  0  1  0  0  0  0  0  0  0  0  0
   -2.5781   26.1380    5.2741 C   0  0  0  0  0  0  0  0  0  0  0  0
   -4.6398   26.6626    3.9001 C   0  0  0  0  0  0  0  0  0  0  0  0
   -5.7415   25.6318    3.9692 C   0  0  0  0  0  0  0  0  0  0  0  0
   -5.5239   26.4101    2.7021 C   0  0  0  0  0  0  0  0  0  0  0  0
   -1.5228   29.0047    1.8908 C   0  0  0  0  0  0  0  0  0  0  0  0
  1  2  1  0
  2  3  2  0
  2  4  1  0
  4  5  1  0
  5  6  2  0
  6  7  1  0
  7  8  2  0
  8  9  1  0
  9 10  1  0
 10 11  1  0
 11 12  1  1
 11 13  1  0
 13 14  1  0
 14 15  1  0
  9 16  2  0
 16  5  1  0
 15 13  1  0
M  END
>  <Energy>  (1294) 
15.436902699161596

>  <Energy_Delta>  (1294) 
5.4397298727795746

>  <std_smi>  (1294) 
CC(=O)Nc1cccc(NC(C)C2CC2)c1

>  <enum_smi>  (1294) 
CC(=O)Nc1cccc(N[C@@H](C)C2CC2)c1

>  <enum_code>  (1294) 
C

>  <parent_uuid>  (1294) 
80177037-97d9-4251-9583-a2fb747585df

>  <o3da_score>  (1294) 
92.75332528061756

>  <o3da_score_rel>  (1294) 
0.36926446461803919

>  <o3da_align>  (1294) 
0.4609542935598806

>  <RMSD>  (1294) 
0.16710569828915728

>  <CONVERGED>  (1294) 
0

>  <ENERGY>  (1294) 
14.895946723633445

$$$$
16bf8579-8f37-4ab9-a9a8-dd28e5f1981b
     RDKit          3D

 16 17  0  0  0  0  0  0  0  0999 V2000
   -7.0870   21.3452    3.4221 C   0  0  0  0  0  0  0  0  0  0  0  0
   -5.7899   21.9670    3.8773 C   0  0  0  0  0  0  0  0  0  0  0  0
   -4.8174   21.2667    4.1345 O   0  0  0  0  0  0  0  0  0  0  0  0
   -5.8788   23.3437    3.9762 N   0  0  0  0  0  0  0  0  0  0  0  0
   -4.8698   24.2442    4.3800 C   0  0  0  0  0  0  0  0  0  0  0  0
   -3.5874   23.8585    4.7542 C   0  0  0  0  0  0  0  0  0  0  0  0
   -2.6634   24.8207    5.1586 C   0  0  0  0  0  0  0  0  0  0  0  0
   -3.0115   26.1747    5.1811 C   0  0  0  0  0  0  0  0  0  0  0  0
   -4.2746   26.6043    4.7775 C   0  0  0  0  0  0  0  0  0  0  0  0
   -4.7173   27.9199    4.8247 N   0  0  0  0  0  0  0  0  0  0  0  0
   -3.9131   29.1143    5.0915 C   0  0  1  0  0  0  0  0  0  0  0  0
   -3.5697   29.2284    6.5737 C   0  0  0  0  0  0  0  0  0  0  0  0
   -2.7691   29.2479    4.1159 C   0  0  0  0  0  0  0  0  0  0  0  0
   -2.0029   30.5494    4.0256 C   0  0  0  0  0  0  0  0  0  0  0  0
   -1.3099   29.3111    4.5132 C   0  0  0  0  0  0  0  0  0  0  0  0
   -5.1991   25.6102    4.4052 C   0  0  0  0  0  0  0  0  0  0  0  0
  1  2  1  0
  2  3  2  0
  2  4  1  0
  4  5  1  0
  5  6  2  0
  6  7  1  0
  7  8  2  0
  8  9  1  0
  9 10  1  0
 10 11  1  0
 11 12  1  1
 11 13  1  0
 13 14  1  0
 14 15  1  0
  9 16  2  0
 16  5  1  0
 15 13  1  0
M  END
>  <Energy>  (1295) 
16.631245997371007

>  <Energy_Delta>  (1295) 
6.6340731709889855

>  <std_smi>  (1295) 
CC(=O)Nc1cccc(NC(C)C2CC2)c1

>  <enum_smi>  (1295) 
CC(=O)Nc1cccc(N[C@@H](C)C2CC2)c1

>  <enum_code>  (1295) 
C

>  <parent_uuid>  (1295) 
80177037-97d9-4251-9583-a2fb747585df

>  <o3da_score>  (1295) 
81.86971069241747

>  <o3da_score_rel>  (1295) 
0.32593521359806943

>  <o3da_align>  (1295) 
0.38070913570108367

>  <RMSD>  (1295) 
0.19499107248322828

>  <CONVERGED>  (1295) 
0

>  <ENERGY>  (1295) 
17.064100033986701

$$$$
16bf8579-8f37-4ab9-a9a8-dd28e5f1981b
     RDKit          3D

 16 17  0  0  0  0  0  0  0  0999 V2000
    0.6819   23.2038    5.8234 C   0  0  0  0  0  0  0  0  0  0  0  0
   -0.7987   23.1568    5.5371 C   0  0  0  0  0  0  0  0  0  0  0  0
   -1.3978   22.0876    5.5197 O   0  0  0  0  0  0  0  0  0  0  0  0
   -1.3329   24.4178    5.3457 N   0  0  0  0  0  0  0  0  0  0  0  0
   -2.6740   24.7507    5.0554 C   0  0  0  0  0  0  0  0  0  0  0  0
   -3.6874   23.8117    4.8872 C   0  0  0  0  0  0  0  0  0  0  0  0
   -4.9791   24.2317    4.5772 C   0  0  0  0  0  0  0  0  0  0  0  0
   -5.2621   25.5928    4.4492 C   0  0  0  0  0  0  0  0  0  0  0  0
   -4.2767   26.5690    4.6521 C   0  0  0  0  0  0  0  0  0  0  0  0
   -4.6237   27.9010    4.4491 N   0  0  0  0  0  0  0  0  0  0  0  0
   -3.8530   29.0731    4.8729 C   0  0  1  0  0  0  0  0  0  0  0  0
   -3.6659   29.1054    6.3866 C   0  0  0  0  0  0  0  0  0  0  0  0
   -2.6059   29.2402    4.0385 C   0  0  0  0  0  0  0  0  0  0  0  0
   -1.8807   30.5685    4.0383 C   0  0  0  0  0  0  0  0  0  0  0  0
   -1.2030   29.3538    4.5988 C   0  0  0  0  0  0  0  0  0  0  0  0
   -2.9799   26.1178    4.9226 C   0  0  0  0  0  0  0  0  0  0  0  0
  1  2  1  0
  2  3  2  0
  2  4  1  0
  4  5  1  0
  5  6  2  0
  6  7  1  0
  7  8  2  0
  8  9  1  0
  9 10  1  0
 10 11  1  0
 11 12  1  1
 11 13  1  0
 13 14  1  0
 14 15  1  0
  9 16  2  0
 16  5  1  0
 15 13  1  0
M  END
>  <Energy>  (1296) 
16.779220285718999

>  <Energy_Delta>  (1296) 
6.7820474593369777

>  <std_smi>  (1296) 
CC(=O)Nc1cccc(NC(C)C2CC2)c1

>  <enum_smi>  (1296) 
CC(=O)Nc1cccc(N[C@@H](C)C2CC2)c1

>  <enum_code>  (1296) 
C

>  <parent_uuid>  (1296) 
80177037-97d9-4251-9583-a2fb747585df

>  <o3da_score>  (1296) 
84.263319800911589

>  <o3da_score_rel>  (1296) 
0.33546451924052323

>  <o3da_align>  (1296) 
0.29277340472559721

>  <RMSD>  (1296) 
0.19728527353627456

>  <CONVERGED>  (1296) 
0

>  <ENERGY>  (1296) 
16.280652535362577

$$$$
16bf8579-8f37-4ab9-a9a8-dd28e5f1981b
     RDKit          3D

 16 17  0  0  0  0  0  0  0  0999 V2000
   -7.8434   22.1529    3.1443 C   0  0  0  0  0  0  0  0  0  0  0  0
   -7.1599   23.4673    3.4305 C   0  0  0  0  0  0  0  0  0  0  0  0
   -7.7768   24.5230    3.3445 O   0  0  0  0  0  0  0  0  0  0  0  0
   -5.8412   23.2975    3.8114 N   0  0  0  0  0  0  0  0  0  0  0  0
   -4.9035   24.3001    4.1402 C   0  0  0  0  0  0  0  0  0  0  0  0
   -3.6394   23.8772    4.5561 C   0  0  0  0  0  0  0  0  0  0  0  0
   -2.6600   24.8124    4.8811 C   0  0  0  0  0  0  0  0  0  0  0  0
   -2.9400   26.1788    4.8018 C   0  0  0  0  0  0  0  0  0  0  0  0
   -4.2011   26.6394    4.4215 C   0  0  0  0  0  0  0  0  0  0  0  0
   -4.5299   27.9821    4.2554 N   0  0  0  0  0  0  0  0  0  0  0  0
   -3.8277   29.1238    4.8463 C   0  0  1  0  0  0  0  0  0  0  0  0
   -3.8197   29.0532    6.3701 C   0  0  0  0  0  0  0  0  0  0  0  0
   -2.4937   29.3524    4.1773 C   0  0  0  0  0  0  0  0  0  0  0  0
   -1.1675   29.4285    4.9051 C   0  0  0  0  0  0  0  0  0  0  0  0
   -1.7862   30.6786    4.3543 C   0  0  0  0  0  0  0  0  0  0  0  0
   -5.1621   25.6732    4.0624 C   0  0  0  0  0  0  0  0  0  0  0  0
  1  2  1  0
  2  3  2  0
  2  4  1  0
  4  5  1  0
  5  6  2  0
  6  7  1  0
  7  8  2  0
  8  9  1  0
  9 10  1  0
 10 11  1  0
 11 12  1  1
 11 13  1  0
 13 14  1  0
 14 15  1  0
  9 16  2  0
 16  5  1  0
 15 13  1  0
M  END
>  <Energy>  (1297) 
17.22436923569397

>  <Energy_Delta>  (1297) 
7.227196409311949

>  <std_smi>  (1297) 
CC(=O)Nc1cccc(NC(C)C2CC2)c1

>  <enum_smi>  (1297) 
CC(=O)Nc1cccc(N[C@@H](C)C2CC2)c1

>  <enum_code>  (1297) 
C

>  <parent_uuid>  (1297) 
80177037-97d9-4251-9583-a2fb747585df

>  <o3da_score>  (1297) 
92.601485541113831

>  <o3da_score_rel>  (1297) 
0.36865996855338651

>  <o3da_align>  (1297) 
0.30837194360902564

>  <RMSD>  (1297) 
0.28932386515432906

>  <CONVERGED>  (1297) 
0

>  <ENERGY>  (1297) 
16.688095919517863

$$$$
37729e11-6fb0-4eb5-8aee-37ee3547353e
     RDKit          3D

 16 17  0  0  0  0  0  0  0  0999 V2000
   -6.3278   21.2381    2.7746 C   0  0  0  0  0  0  0  0  0  0  0  0
   -5.8597   22.0232    3.7464 C   0  0  0  0  0  0  0  0  0  0  0  0
   -5.4474   21.4275    4.9121 O   0  0  0  0  0  0  0  0  0  0  0  0
   -5.8557   23.3924    3.7084 N   0  0  0  0  0  0  0  0  0  0  0  0
   -4.8500   24.2720    4.1731 C   0  0  0  0  0  0  0  0  0  0  0  0
   -3.5997   23.8454    4.6245 C   0  0  0  0  0  0  0  0  0  0  0  0
   -2.6799   24.7627    5.1301 C   0  0  0  0  0  0  0  0  0  0  0  0
   -2.9985   26.1219    5.1887 C   0  0  0  0  0  0  0  0  0  0  0  0
   -4.2258   26.5957    4.7204 C   0  0  0  0  0  0  0  0  0  0  0  0
   -4.6344   27.9251    4.8140 N   0  0  0  0  0  0  0  0  0  0  0  0
   -3.6985   29.0298    5.0037 C   0  0  1  0  0  0  0  0  0  0  0  0
   -2.9210   29.3092    3.7180 C   0  0  0  0  0  0  0  0  0  0  0  0
   -4.5126   30.2437    5.3882 C   0  0  0  0  0  0  0  0  0  0  0  0
   -3.9428   31.2922    6.3126 C   0  0  0  0  0  0  0  0  0  0  0  0
   -5.0429   30.3878    6.7940 C   0  0  0  0  0  0  0  0  0  0  0  0
   -5.1486   25.6445    4.2503 C   0  0  0  0  0  0  0  0  0  0  0  0
  1  2  2  3
  2  3  1  0
  2  4  1  0
  4  5  1  0
  5  6  2  0
  6  7  1  0
  7  8  2  0
  8  9  1  0
  9 10  1  0
 10 11  1  0
 11 12  1  6
 11 13  1  0
 13 14  1  0
 14 15  1  0
  9 16  2  0
 16  5  1  0
 15 13  1  0
M  END
>  <Energy>  (1298) 
-17.620948581131746

>  <Energy_Delta>  (1298) 
0

>  <std_smi>  (1298) 
CC(=O)Nc1cccc(NC(C)C2CC2)c1

>  <enum_smi>  (1298) 
C=C(O)Nc1cccc(NC(C)C2CC2)c1

>  <enum_code>  (1298) 
T

>  <parent_uuid>  (1298) 
80177037-97d9-4251-9583-a2fb747585df

>  <o3da_score>  (1298) 
80.214139935763669

>  <o3da_score_rel>  (1298) 
0.3193441458682228

>  <o3da_align>  (1298) 
0.12621304890840937

>  <RMSD>  (1298) 
7.3311290080651275e-05

>  <CONVERGED>  (1298) 
0

>  <ENERGY>  (1298) 
-17.620948586998203

$$$$
37729e11-6fb0-4eb5-8aee-37ee3547353e
     RDKit          3D

 16 17  0  0  0  0  0  0  0  0999 V2000
   -6.2714   21.1404    2.8719 C   0  0  0  0  0  0  0  0  0  0  0  0
   -5.8180   21.9296    3.8473 C   0  0  0  0  0  0  0  0  0  0  0  0
   -5.3670   21.3346    4.9988 O   0  0  0  0  0  0  0  0  0  0  0  0
   -5.8644   23.2984    3.8275 N   0  0  0  0  0  0  0  0  0  0  0  0
   -4.8848   24.2082    4.2895 C   0  0  0  0  0  0  0  0  0  0  0  0
   -3.6132   23.8220    4.7172 C   0  0  0  0  0  0  0  0  0  0  0  0
   -2.7201   24.7659    5.2218 C   0  0  0  0  0  0  0  0  0  0  0  0
   -3.0872   26.1116    5.3031 C   0  0  0  0  0  0  0  0  0  0  0  0
   -4.3378   26.5461    4.8588 C   0  0  0  0  0  0  0  0  0  0  0  0
   -4.7931   27.8583    4.9759 N   0  0  0  0  0  0  0  0  0  0  0  0
   -3.8954   28.9940    5.1670 C   0  0  1  0  0  0  0  0  0  0  0  0
   -3.1477   29.3182    3.8742 C   0  0  0  0  0  0  0  0  0  0  0  0
   -4.7476   30.1723    5.5793 C   0  0  0  0  0  0  0  0  0  0  0  0
   -5.2619   30.2787    6.9942 C   0  0  0  0  0  0  0  0  0  0  0  0
   -4.2027   31.2290    6.5093 C   0  0  0  0  0  0  0  0  0  0  0  0
   -5.2321   25.5678    4.3893 C   0  0  0  0  0  0  0  0  0  0  0  0
  1  2  2  3
  2  3  1  0
  2  4  1  0
  4  5  1  0
  5  6  2  0
  6  7  1  0
  7  8  2  0
  8  9  1  0
  9 10  1  0
 10 11  1  0
 11 12  1  6
 11 13  1  0
 13 14  1  0
 14 15  1  0
  9 16  2  0
 16  5  1  0
 15 13  1  0
M  END
>  <Energy>  (1299) 
-17.589179333327451

>  <Energy_Delta>  (1299) 
0.03176924780429502

>  <std_smi>  (1299) 
CC(=O)Nc1cccc(NC(C)C2CC2)c1

>  <enum_smi>  (1299) 
C=C(O)Nc1cccc(NC(C)C2CC2)c1

>  <enum_code>  (1299) 
T

>  <parent_uuid>  (1299) 
80177037-97d9-4251-9583-a2fb747585df

>  <o3da_score>  (1299) 
77.458338948159692

>  <o3da_score_rel>  (1299) 
0.30837290173004528

>  <o3da_align>  (1299) 
0.30544365969066295

>  <RMSD>  (1299) 
0.30481853163493933

>  <CONVERGED>  (1299) 
0

>  <ENERGY>  (1299) 
-17.620948586974301

$$$$
37729e11-6fb0-4eb5-8aee-37ee3547353e
     RDKit          3D

 16 17  0  0  0  0  0  0  0  0999 V2000
   -8.2398   23.0239    3.1138 C   0  0  0  0  0  0  0  0  0  0  0  0
   -7.0531   23.6192    2.9820 C   0  0  0  0  0  0  0  0  0  0  0  0
   -6.8791   24.4760    1.9240 O   0  0  0  0  0  0  0  0  0  0  0  0
   -5.9612   23.3587    3.7668 N   0  0  0  0  0  0  0  0  0  0  0  0
   -4.9947   24.2706    4.2507 C   0  0  0  0  0  0  0  0  0  0  0  0
   -3.8318   23.7544    4.8317 C   0  0  0  0  0  0  0  0  0  0  0  0
   -2.8158   24.6045    5.2633 C   0  0  0  0  0  0  0  0  0  0  0  0
   -2.9516   25.9876    5.1238 C   0  0  0  0  0  0  0  0  0  0  0  0
   -4.1100   26.5469    4.5793 C   0  0  0  0  0  0  0  0  0  0  0  0
   -4.2822   27.9123    4.3530 N   0  0  0  0  0  0  0  0  0  0  0  0
   -3.5094   28.9329    5.0551 C   0  0  2  0  0  0  0  0  0  0  0  0
   -3.9661   29.0559    6.5083 C   0  0  0  0  0  0  0  0  0  0  0  0
   -3.7347   30.2403    4.3312 C   0  0  0  0  0  0  0  0  0  0  0  0
   -3.0162   30.5235    3.0344 C   0  0  0  0  0  0  0  0  0  0  0  0
   -2.6493   31.2878    4.2759 C   0  0  0  0  0  0  0  0  0  0  0  0
   -5.1031   25.6639    4.1164 C   0  0  0  0  0  0  0  0  0  0  0  0
  1  2  2  3
  2  3  1  0
  2  4  1  0
  4  5  1  0
  5  6  2  0
  6  7  1  0
  7  8  2  0
  8  9  1  0
  9 10  1  0
 10 11  1  0
 11 12  1  1
 11 13  1  0
 13 14  1  0
 14 15  1  0
  9 16  2  0
 16  5  1  0
 15 13  1  0
M  END
>  <Energy>  (1300) 
-17.45506181064345

>  <Energy_Delta>  (1300) 
0.16588677048829581

>  <std_smi>  (1300) 
CC(=O)Nc1cccc(NC(C)C2CC2)c1

>  <enum_smi>  (1300) 
C=C(O)Nc1cccc(NC(C)C2CC2)c1

>  <enum_code>  (1300) 
T

>  <parent_uuid>  (1300) 
80177037-97d9-4251-9583-a2fb747585df

>  <o3da_score>  (1300) 
90.207136769849313

>  <o3da_score_rel>  (1300) 
0.35912771820597378

>  <o3da_align>  (1300) 
0.38585977949767536

>  <RMSD>  (1300) 
0.33194893989744245

>  <CONVERGED>  (1300) 
0

>  <ENERGY>  (1300) 
-17.783295656444903

$$$$
37729e11-6fb0-4eb5-8aee-37ee3547353e
     RDKit          3D

 16 17  0  0  0  0  0  0  0  0999 V2000
   -7.7236   23.0274    2.1925 C   0  0  0  0  0  0  0  0  0  0  0  0
   -7.1083   23.5716    3.2438 C   0  0  0  0  0  0  0  0  0  0  0  0
   -7.8723   24.2733    4.1425 O   0  0  0  0  0  0  0  0  0  0  0  0
   -5.7844   23.3948    3.5476 N   0  0  0  0  0  0  0  0  0  0  0  0
   -4.8737   24.3434    4.0679 C   0  0  0  0  0  0  0  0  0  0  0  0
   -3.6359   23.8859    4.5314 C   0  0  0  0  0  0  0  0  0  0  0  0
   -2.7282   24.7654    5.1175 C   0  0  0  0  0  0  0  0  0  0  0  0
   -3.0443   26.1202    5.2417 C   0  0  0  0  0  0  0  0  0  0  0  0
   -4.2532   26.6261    4.7588 C   0  0  0  0  0  0  0  0  0  0  0  0
   -4.6545   27.9556    4.9093 N   0  0  0  0  0  0  0  0  0  0  0  0
   -3.6933   29.0545    4.9903 C   0  0  2  0  0  0  0  0  0  0  0  0
   -4.3982   30.2477    5.6417 C   0  0  0  0  0  0  0  0  0  0  0  0
   -3.2347   29.4243    3.6014 C   0  0  0  0  0  0  0  0  0  0  0  0
   -1.9563   30.2023    3.3992 C   0  0  0  0  0  0  0  0  0  0  0  0
   -2.0319   28.7642    2.9716 C   0  0  0  0  0  0  0  0  0  0  0  0
   -5.1690   25.7086    4.2109 C   0  0  0  0  0  0  0  0  0  0  0  0
  1  2  2  3
  2  3  1  0
  2  4  1  0
  4  5  1  0
  5  6  2  0
  6  7  1  0
  7  8  2  0
  8  9  1  0
  9 10  1  0
 10 11  1  0
 11 12  1  6
 11 13  1  0
 13 14  1  0
 14 15  1  0
  9 16  2  0
 16  5  1  0
 15 13  1  0
M  END
>  <Energy>  (1301) 
-17.319657527100187

>  <Energy_Delta>  (1301) 
0.30129105403155876

>  <std_smi>  (1301) 
CC(=O)Nc1cccc(NC(C)C2CC2)c1

>  <enum_smi>  (1301) 
C=C(O)Nc1cccc(NC(C)C2CC2)c1

>  <enum_code>  (1301) 
T

>  <parent_uuid>  (1301) 
80177037-97d9-4251-9583-a2fb747585df

>  <o3da_score>  (1301) 
98.574623768902427

>  <o3da_score_rel>  (1301) 
0.39243989971058041

>  <o3da_align>  (1301) 
0.29506875313648778

>  <RMSD>  (1301) 
6.4522076148616428e-05

>  <CONVERGED>  (1301) 
0

>  <ENERGY>  (1301) 
-17.319657530099125

$$$$
37729e11-6fb0-4eb5-8aee-37ee3547353e
     RDKit          3D

 16 17  0  0  0  0  0  0  0  0999 V2000
   -7.7127   23.0126    2.1832 C   0  0  0  0  0  0  0  0  0  0  0  0
   -7.1139   23.5844    3.2293 C   0  0  0  0  0  0  0  0  0  0  0  0
   -7.8861   24.3376    4.0780 O   0  0  0  0  0  0  0  0  0  0  0  0
   -5.8032   23.3903    3.5767 N   0  0  0  0  0  0  0  0  0  0  0  0
   -4.8851   24.3365    4.0879 C   0  0  0  0  0  0  0  0  0  0  0  0
   -3.6712   23.8688    4.6014 C   0  0  0  0  0  0  0  0  0  0  0  0
   -2.7588   24.7485    5.1802 C   0  0  0  0  0  0  0  0  0  0  0  0
   -3.0466   26.1136    5.2488 C   0  0  0  0  0  0  0  0  0  0  0  0
   -4.2319   26.6277    4.7181 C   0  0  0  0  0  0  0  0  0  0  0  0
   -4.6113   27.9672    4.8113 N   0  0  0  0  0  0  0  0  0  0  0  0
   -3.6526   29.0473    5.0361 C   0  0  1  0  0  0  0  0  0  0  0  0
   -2.8438   29.3128    3.7648 C   0  0  0  0  0  0  0  0  0  0  0  0
   -4.3547   30.3200    5.4683 C   0  0  0  0  0  0  0  0  0  0  0  0
   -5.6227   30.8328    4.8234 C   0  0  0  0  0  0  0  0  0  0  0  0
   -5.6574   30.3089    6.2346 C   0  0  0  0  0  0  0  0  0  0  0  0
   -5.1524   25.7120    4.1753 C   0  0  0  0  0  0  0  0  0  0  0  0
  1  2  2  3
  2  3  1  0
  2  4  1  0
  4  5  1  0
  5  6  2  0
  6  7  1  0
  7  8  2  0
  8  9  1  0
  9 10  1  0
 10 11  1  0
 11 12  1  6
 11 13  1  0
 13 14  1  0
 14 15  1  0
  9 16  2  0
 16  5  1  0
 15 13  1  0
M  END
>  <Energy>  (1302) 
-16.36605810296572

>  <Energy_Delta>  (1302) 
1.2548904781660255

>  <std_smi>  (1302) 
CC(=O)Nc1cccc(NC(C)C2CC2)c1

>  <enum_smi>  (1302) 
C=C(O)Nc1cccc(NC(C)C2CC2)c1

>  <enum_code>  (1302) 
T

>  <parent_uuid>  (1302) 
80177037-97d9-4251-9583-a2fb747585df

>  <o3da_score>  (1302) 
87.389079697706293

>  <o3da_score_rel>  (1302) 
0.34790862354969382

>  <o3da_align>  (1302) 
0.18609587931665003

>  <RMSD>  (1302) 
6.5468369988435225e-05

>  <CONVERGED>  (1302) 
0

>  <ENERGY>  (1302) 
-16.366058117784625

$$$$
37729e11-6fb0-4eb5-8aee-37ee3547353e
     RDKit          3D

 16 17  0  0  0  0  0  0  0  0999 V2000
   -8.1718   22.9249    3.2048 C   0  0  0  0  0  0  0  0  0  0  0  0
   -7.0428   23.6186    3.0491 C   0  0  0  0  0  0  0  0  0  0  0  0
   -7.0080   24.5751    2.0653 O   0  0  0  0  0  0  0  0  0  0  0  0
   -5.8804   23.3754    3.7317 N   0  0  0  0  0  0  0  0  0  0  0  0
   -4.9480   24.3134    4.2321 C   0  0  0  0  0  0  0  0  0  0  0  0
   -3.7119   23.8397    4.6840 C   0  0  0  0  0  0  0  0  0  0  0  0
   -2.7297   24.7247    5.1237 C   0  0  0  0  0  0  0  0  0  0  0  0
   -2.9731   26.0999    5.1223 C   0  0  0  0  0  0  0  0  0  0  0  0
   -4.2051   26.6136    4.7106 C   0  0  0  0  0  0  0  0  0  0  0  0
   -4.4890   27.9757    4.6237 N   0  0  0  0  0  0  0  0  0  0  0  0
   -3.7525   28.9933    5.3717 C   0  0  2  0  0  0  0  0  0  0  0  0
   -4.1206   28.9313    6.8538 C   0  0  0  0  0  0  0  0  0  0  0  0
   -4.0513   30.3128    4.6945 C   0  0  0  0  0  0  0  0  0  0  0  0
   -5.3689   31.0354    4.8585 C   0  0  0  0  0  0  0  0  0  0  0  0
   -4.1071   31.6422    5.4109 C   0  0  0  0  0  0  0  0  0  0  0  0
   -5.1643   25.7006    4.2350 C   0  0  0  0  0  0  0  0  0  0  0  0
  1  2  2  3
  2  3  1  0
  2  4  1  0
  4  5  1  0
  5  6  2  0
  6  7  1  0
  7  8  2  0
  8  9  1  0
  9 10  1  0
 10 11  1  0
 11 12  1  1
 11 13  1  0
 13 14  1  0
 14 15  1  0
  9 16  2  0
 16  5  1  0
 15 13  1  0
M  END
>  <Energy>  (1303) 
-15.52201004702494

>  <Energy_Delta>  (1303) 
2.0989385341068054

>  <std_smi>  (1303) 
CC(=O)Nc1cccc(NC(C)C2CC2)c1

>  <enum_smi>  (1303) 
C=C(O)Nc1cccc(NC(C)C2CC2)c1

>  <enum_code>  (1303) 
T

>  <parent_uuid>  (1303) 
80177037-97d9-4251-9583-a2fb747585df

>  <o3da_score>  (1303) 
80.853625384132101

>  <o3da_score_rel>  (1303) 
0.32189003035277763

>  <o3da_align>  (1303) 
0.19645710476192388

>  <RMSD>  (1303) 
6.1882367778026351e-05

>  <CONVERGED>  (1303) 
0

>  <ENERGY>  (1303) 
-15.522010048493481

$$$$
37729e11-6fb0-4eb5-8aee-37ee3547353e
     RDKit          3D

 16 17  0  0  0  0  0  0  0  0999 V2000
   -0.4200   32.8943    1.4302 C   0  0  0  0  0  0  0  0  0  0  0  0
   -1.0604   32.5472    2.5479 C   0  0  0  0  0  0  0  0  0  0  0  0
   -1.1437   33.4748    3.5560 O   0  0  0  0  0  0  0  0  0  0  0  0
   -1.5536   31.2959    2.8072 N   0  0  0  0  0  0  0  0  0  0  0  0
   -2.7696   30.9564    3.4478 C   0  0  0  0  0  0  0  0  0  0  0  0
   -3.7498   31.8934    3.7842 C   0  0  0  0  0  0  0  0  0  0  0  0
   -4.8964   31.5009    4.4711 C   0  0  0  0  0  0  0  0  0  0  0  0
   -5.0745   30.1628    4.8248 C   0  0  0  0  0  0  0  0  0  0  0  0
   -4.1316   29.1854    4.4815 C   0  0  0  0  0  0  0  0  0  0  0  0
   -4.3414   27.8815    4.9251 N   0  0  0  0  0  0  0  0  0  0  0  0
   -3.6234   26.7267    4.3887 C   0  0  2  0  0  0  0  0  0  0  0  0
   -4.1162   26.4054    2.9780 C   0  0  0  0  0  0  0  0  0  0  0  0
   -3.8030   25.6129    5.3967 C   0  0  0  0  0  0  0  0  0  0  0  0
   -3.8505   24.1451    5.0411 C   0  0  0  0  0  0  0  0  0  0  0  0
   -5.0924   24.8364    5.5365 C   0  0  0  0  0  0  0  0  0  0  0  0
   -2.9696   29.6140    3.8252 C   0  0  0  0  0  0  0  0  0  0  0  0
  1  2  2  3
  2  3  1  0
  2  4  1  0
  4  5  1  0
  5  6  2  0
  6  7  1  0
  7  8  2  0
  8  9  1  0
  9 10  1  0
 10 11  1  0
 11 12  1  6
 11 13  1  0
 13 14  1  0
 14 15  1  0
  9 16  2  0
 16  5  1  0
 15 13  1  0
M  END
>  <Energy>  (1304) 
-15.398123235458899

>  <Energy_Delta>  (1304) 
2.2228253456728471

>  <std_smi>  (1304) 
CC(=O)Nc1cccc(NC(C)C2CC2)c1

>  <enum_smi>  (1304) 
C=C(O)Nc1cccc(NC(C)C2CC2)c1

>  <enum_code>  (1304) 
T

>  <parent_uuid>  (1304) 
80177037-97d9-4251-9583-a2fb747585df

>  <o3da_score>  (1304) 
83.551690250399645

>  <o3da_score_rel>  (1304) 
0.33263141860309431

>  <o3da_align>  (1304) 
0.52452370910504753

>  <RMSD>  (1304) 
6.9063241138903996e-05

>  <CONVERGED>  (1304) 
0

>  <ENERGY>  (1304) 
-15.398123236627113

$$$$
37729e11-6fb0-4eb5-8aee-37ee3547353e
     RDKit          3D

 16 17  0  0  0  0  0  0  0  0999 V2000
   -6.7086   21.1342    3.6569 C   0  0  0  0  0  0  0  0  0  0  0  0
   -5.7574   22.0423    3.4326 C   0  0  0  0  0  0  0  0  0  0  0  0
   -4.6169   21.6339    2.7874 O   0  0  0  0  0  0  0  0  0  0  0  0
   -5.8749   23.3793    3.7076 N   0  0  0  0  0  0  0  0  0  0  0  0
   -4.8890   24.2435    4.2401 C   0  0  0  0  0  0  0  0  0  0  0  0
   -3.6560   23.8034    4.7238 C   0  0  0  0  0  0  0  0  0  0  0  0
   -2.7240   24.7166    5.2143 C   0  0  0  0  0  0  0  0  0  0  0  0
   -3.0054   26.0855    5.2082 C   0  0  0  0  0  0  0  0  0  0  0  0
   -4.2068   26.5724    4.6901 C   0  0  0  0  0  0  0  0  0  0  0  0
   -4.5786   27.9128    4.6971 N   0  0  0  0  0  0  0  0  0  0  0  0
   -3.6770   29.0134    5.0170 C   0  0  2  0  0  0  0  0  0  0  0  0
   -4.5186   30.1495    5.6100 C   0  0  0  0  0  0  0  0  0  0  0  0
   -2.9014   29.5241    3.8241 C   0  0  0  0  0  0  0  0  0  0  0  0
   -2.6029   28.7131    2.5826 C   0  0  0  0  0  0  0  0  0  0  0  0
   -3.5688   29.8631    2.5095 C   0  0  0  0  0  0  0  0  0  0  0  0
   -5.1426   25.6269    4.2336 C   0  0  0  0  0  0  0  0  0  0  0  0
  1  2  2  3
  2  3  1  0
  2  4  1  0
  4  5  1  0
  5  6  2  0
  6  7  1  0
  7  8  2  0
  8  9  1  0
  9 10  1  0
 10 11  1  0
 11 12  1  6
 11 13  1  0
 13 14  1  0
 14 15  1  0
  9 16  2  0
 16  5  1  0
 15 13  1  0
M  END
>  <Energy>  (1305) 
-15.391225800795258

>  <Energy_Delta>  (1305) 
2.2297227803364876

>  <std_smi>  (1305) 
CC(=O)Nc1cccc(NC(C)C2CC2)c1

>  <enum_smi>  (1305) 
C=C(O)Nc1cccc(NC(C)C2CC2)c1

>  <enum_code>  (1305) 
T

>  <parent_uuid>  (1305) 
80177037-97d9-4251-9583-a2fb747585df

>  <o3da_score>  (1305) 
86.959090272926346

>  <o3da_score_rel>  (1305) 
0.34619677317395353

>  <o3da_align>  (1305) 
0.16519428842852615

>  <RMSD>  (1305) 
6.7924612146528626e-05

>  <CONVERGED>  (1305) 
0

>  <ENERGY>  (1305) 
-15.391225801136116

$$$$
37729e11-6fb0-4eb5-8aee-37ee3547353e
     RDKit          3D

 16 17  0  0  0  0  0  0  0  0999 V2000
   -6.6142   21.2058    3.3272 C   0  0  0  0  0  0  0  0  0  0  0  0
   -5.6754   22.1426    3.1827 C   0  0  0  0  0  0  0  0  0  0  0  0
   -4.5172   21.7982    2.5318 O   0  0  0  0  0  0  0  0  0  0  0  0
   -5.8208   23.4555    3.5465 N   0  0  0  0  0  0  0  0  0  0  0  0
   -4.8590   24.2964    4.1550 C   0  0  0  0  0  0  0  0  0  0  0  0
   -3.6281   23.8429    4.6319 C   0  0  0  0  0  0  0  0  0  0  0  0
   -2.7221   24.7334    5.2059 C   0  0  0  0  0  0  0  0  0  0  0  0
   -3.0257   26.0950    5.2875 C   0  0  0  0  0  0  0  0  0  0  0  0
   -4.2214   26.5990    4.7715 C   0  0  0  0  0  0  0  0  0  0  0  0
   -4.6159   27.9346    4.8718 N   0  0  0  0  0  0  0  0  0  0  0  0
   -3.6631   29.0258    5.0809 C   0  0  2  0  0  0  0  0  0  0  0  0
   -4.4428   30.2246    5.6254 C   0  0  0  0  0  0  0  0  0  0  0  0
   -2.9234   29.2839    3.7887 C   0  0  0  0  0  0  0  0  0  0  0  0
   -2.5474   30.6578    3.2819 C   0  0  0  0  0  0  0  0  0  0  0  0
   -3.6071   29.8619    2.5703 C   0  0  0  0  0  0  0  0  0  0  0  0
   -5.1357   25.6730    4.2381 C   0  0  0  0  0  0  0  0  0  0  0  0
  1  2  2  3
  2  3  1  0
  2  4  1  0
  4  5  1  0
  5  6  2  0
  6  7  1  0
  7  8  2  0
  8  9  1  0
  9 10  1  0
 10 11  1  0
 11 12  1  6
 11 13  1  0
 13 14  1  0
 14 15  1  0
  9 16  2  0
 16  5  1  0
 15 13  1  0
M  END
>  <Energy>  (1306) 
-15.258517405435221

>  <Energy_Delta>  (1306) 
2.3624311756965248

>  <std_smi>  (1306) 
CC(=O)Nc1cccc(NC(C)C2CC2)c1

>  <enum_smi>  (1306) 
C=C(O)Nc1cccc(NC(C)C2CC2)c1

>  <enum_code>  (1306) 
T

>  <parent_uuid>  (1306) 
80177037-97d9-4251-9583-a2fb747585df

>  <o3da_score>  (1306) 
85.535910977463359

>  <o3da_score_rel>  (1306) 
0.34053088961662908

>  <o3da_align>  (1306) 
0.23410705255198308

>  <RMSD>  (1306) 
6.5134105684023521e-05

>  <CONVERGED>  (1306) 
0

>  <ENERGY>  (1306) 
-15.258517405584168

$$$$
37729e11-6fb0-4eb5-8aee-37ee3547353e
     RDKit          3D

 16 17  0  0  0  0  0  0  0  0999 V2000
   -6.2898   21.3239    2.5747 C   0  0  0  0  0  0  0  0  0  0  0  0
   -5.8647   22.0777    3.5900 C   0  0  0  0  0  0  0  0  0  0  0  0
   -5.5260   21.4477    4.7613 O   0  0  0  0  0  0  0  0  0  0  0  0
   -5.8386   23.4472    3.5865 N   0  0  0  0  0  0  0  0  0  0  0  0
   -4.8468   24.2990    4.1267 C   0  0  0  0  0  0  0  0  0  0  0  0
   -3.6294   23.8417    4.6341 C   0  0  0  0  0  0  0  0  0  0  0  0
   -2.7252   24.7318    5.2116 C   0  0  0  0  0  0  0  0  0  0  0  0
   -3.0262   26.0943    5.2865 C   0  0  0  0  0  0  0  0  0  0  0  0
   -4.2182   26.5992    4.7629 C   0  0  0  0  0  0  0  0  0  0  0  0
   -4.6151   27.9336    4.8685 N   0  0  0  0  0  0  0  0  0  0  0  0
   -3.6652   29.0257    5.0850 C   0  0  2  0  0  0  0  0  0  0  0  0
   -4.4486   30.2202    5.6338 C   0  0  0  0  0  0  0  0  0  0  0  0
   -2.9235   29.2914    3.7955 C   0  0  0  0  0  0  0  0  0  0  0  0
   -3.6052   29.8760    2.5791 C   0  0  0  0  0  0  0  0  0  0  0  0
   -2.5473   30.6684    3.2973 C   0  0  0  0  0  0  0  0  0  0  0  0
   -5.1288   25.6739    4.2217 C   0  0  0  0  0  0  0  0  0  0  0  0
  1  2  2  3
  2  3  1  0
  2  4  1  0
  4  5  1  0
  5  6  2  0
  6  7  1  0
  7  8  2  0
  8  9  1  0
  9 10  1  0
 10 11  1  0
 11 12  1  6
 11 13  1  0
 13 14  1  0
 14 15  1  0
  9 16  2  0
 16  5  1  0
 15 13  1  0
M  END
>  <Energy>  (1307) 
-15.18541424244169

>  <Energy_Delta>  (1307) 
2.4355343386900561

>  <std_smi>  (1307) 
CC(=O)Nc1cccc(NC(C)C2CC2)c1

>  <enum_smi>  (1307) 
C=C(O)Nc1cccc(NC(C)C2CC2)c1

>  <enum_code>  (1307) 
T

>  <parent_uuid>  (1307) 
80177037-97d9-4251-9583-a2fb747585df

>  <o3da_score>  (1307) 
85.603973537749511

>  <o3da_score_rel>  (1307) 
0.34080185655833778

>  <o3da_align>  (1307) 
0.22966481377230269

>  <RMSD>  (1307) 
6.4704184454610287e-05

>  <CONVERGED>  (1307) 
0

>  <ENERGY>  (1307) 
-15.185414242615707

$$$$
37729e11-6fb0-4eb5-8aee-37ee3547353e
     RDKit          3D

 16 17  0  0  0  0  0  0  0  0999 V2000
   -6.5965   21.0356    3.7395 C   0  0  0  0  0  0  0  0  0  0  0  0
   -5.7152   22.0044    3.4859 C   0  0  0  0  0  0  0  0  0  0  0  0
   -4.6113   21.6897    2.7336 O   0  0  0  0  0  0  0  0  0  0  0  0
   -5.8792   23.3192    3.8349 N   0  0  0  0  0  0  0  0  0  0  0  0
   -4.8992   24.2112    4.3313 C   0  0  0  0  0  0  0  0  0  0  0  0
   -3.6108   23.8175    4.6967 C   0  0  0  0  0  0  0  0  0  0  0  0
   -2.6916   24.7561    5.1631 C   0  0  0  0  0  0  0  0  0  0  0  0
   -3.0420   26.1064    5.2465 C   0  0  0  0  0  0  0  0  0  0  0  0
   -4.3015   26.5507    4.8390 C   0  0  0  0  0  0  0  0  0  0  0  0
   -4.7384   27.8706    4.9490 N   0  0  0  0  0  0  0  0  0  0  0  0
   -3.8206   28.9999    5.0870 C   0  0  1  0  0  0  0  0  0  0  0  0
   -3.1383   29.2960    3.7500 C   0  0  0  0  0  0  0  0  0  0  0  0
   -4.5478   30.2387    5.5729 C   0  0  0  0  0  0  0  0  0  0  0  0
   -5.7768   30.1675    6.4498 C   0  0  0  0  0  0  0  0  0  0  0  0
   -5.8918   30.6803    5.0388 C   0  0  0  0  0  0  0  0  0  0  0  0
   -5.2231   25.5775    4.4132 C   0  0  0  0  0  0  0  0  0  0  0  0
  1  2  2  3
  2  3  1  0
  2  4  1  0
  4  5  1  0
  5  6  2  0
  6  7  1  0
  7  8  2  0
  8  9  1  0
  9 10  1  0
 10 11  1  0
 11 12  1  6
 11 13  1  0
 13 14  1  0
 14 15  1  0
  9 16  2  0
 16  5  1  0
 15 13  1  0
M  END
>  <Energy>  (1308) 
-15.049556021703753

>  <Energy_Delta>  (1308) 
2.5713925594279932

>  <std_smi>  (1308) 
CC(=O)Nc1cccc(NC(C)C2CC2)c1

>  <enum_smi>  (1308) 
C=C(O)Nc1cccc(NC(C)C2CC2)c1

>  <enum_code>  (1308) 
T

>  <parent_uuid>  (1308) 
80177037-97d9-4251-9583-a2fb747585df

>  <o3da_score>  (1308) 
77.740128314362735

>  <o3da_score_rel>  (1308) 
0.30949474613973316

>  <o3da_align>  (1308) 
0.28917408000871081

>  <RMSD>  (1308) 
0.25147717363349481

>  <CONVERGED>  (1308) 
0

>  <ENERGY>  (1308) 
-16.277262285662271

$$$$
37729e11-6fb0-4eb5-8aee-37ee3547353e
     RDKit          3D

 16 17  0  0  0  0  0  0  0  0999 V2000
   -5.6088   21.3515    5.0622 C   0  0  0  0  0  0  0  0  0  0  0  0
   -5.9510   21.9895    3.9415 C   0  0  0  0  0  0  0  0  0  0  0  0
   -6.6445   21.2746    2.9962 O   0  0  0  0  0  0  0  0  0  0  0  0
   -5.7383   23.2984    3.5991 N   0  0  0  0  0  0  0  0  0  0  0  0
   -4.8271   24.2117    4.1718 C   0  0  0  0  0  0  0  0  0  0  0  0
   -3.5538   23.8307    4.5997 C   0  0  0  0  0  0  0  0  0  0  0  0
   -2.6865   24.7649    5.1629 C   0  0  0  0  0  0  0  0  0  0  0  0
   -3.0741   26.1017    5.2833 C   0  0  0  0  0  0  0  0  0  0  0  0
   -4.3148   26.5380    4.8130 C   0  0  0  0  0  0  0  0  0  0  0  0
   -4.7853   27.8432    4.9516 N   0  0  0  0  0  0  0  0  0  0  0  0
   -3.9048   28.9788    5.2103 C   0  0  1  0  0  0  0  0  0  0  0  0
   -3.1135   29.3489    3.9563 C   0  0  0  0  0  0  0  0  0  0  0  0
   -4.7814   30.1374    5.6273 C   0  0  0  0  0  0  0  0  0  0  0  0
   -5.3481   30.1956    7.0250 C   0  0  0  0  0  0  0  0  0  0  0  0
   -4.2800   31.1684    6.6092 C   0  0  0  0  0  0  0  0  0  0  0  0
   -5.1854   25.5669    4.2854 C   0  0  0  0  0  0  0  0  0  0  0  0
  1  2  2  3
  2  3  1  0
  2  4  1  0
  4  5  1  0
  5  6  2  0
  6  7  1  0
  7  8  2  0
  8  9  1  0
  9 10  1  0
 10 11  1  0
 11 12  1  6
 11 13  1  0
 13 14  1  0
 14 15  1  0
  9 16  2  0
 16  5  1  0
 15 13  1  0
M  END
>  <Energy>  (1309) 
-13.818927745974012

>  <Energy_Delta>  (1309) 
3.8020208351577338

>  <std_smi>  (1309) 
CC(=O)Nc1cccc(NC(C)C2CC2)c1

>  <enum_smi>  (1309) 
C=C(O)Nc1cccc(NC(C)C2CC2)c1

>  <enum_code>  (1309) 
T

>  <parent_uuid>  (1309) 
80177037-97d9-4251-9583-a2fb747585df

>  <o3da_score>  (1309) 
77.30945092975719

>  <o3da_score_rel>  (1309) 
0.30778015689596944

>  <o3da_align>  (1309) 
0.31241124881984011

>  <RMSD>  (1309) 
0.26907306557512201

>  <CONVERGED>  (1309) 
0

>  <ENERGY>  (1309) 
-12.506734455709779

$$$$
37729e11-6fb0-4eb5-8aee-37ee3547353e
     RDKit          3D

 16 17  0  0  0  0  0  0  0  0999 V2000
   -6.1110   21.5870    5.0767 C   0  0  0  0  0  0  0  0  0  0  0  0
   -6.2042   22.1168    3.8558 C   0  0  0  0  0  0  0  0  0  0  0  0
   -6.8695   21.3869    2.9017 O   0  0  0  0  0  0  0  0  0  0  0  0
   -5.7525   23.3298    3.4100 N   0  0  0  0  0  0  0  0  0  0  0  0
   -4.8021   24.1831    4.0091 C   0  0  0  0  0  0  0  0  0  0  0  0
   -3.6665   23.6987    4.6611 C   0  0  0  0  0  0  0  0  0  0  0  0
   -2.7344   24.5784    5.2086 C   0  0  0  0  0  0  0  0  0  0  0  0
   -2.9309   25.9585    5.1172 C   0  0  0  0  0  0  0  0  0  0  0  0
   -4.0680   26.4858    4.5008 C   0  0  0  0  0  0  0  0  0  0  0  0
   -4.2924   27.8499    4.3154 N   0  0  0  0  0  0  0  0  0  0  0  0
   -3.6081   28.8758    5.0978 C   0  0  2  0  0  0  0  0  0  0  0  0
   -4.1566   28.9279    6.5234 C   0  0  0  0  0  0  0  0  0  0  0  0
   -3.8467   30.1980    4.4052 C   0  0  0  0  0  0  0  0  0  0  0  0
   -3.0661   30.5565    3.1641 C   0  0  0  0  0  0  0  0  0  0  0  0
   -2.8056   31.2901    4.4502 C   0  0  0  0  0  0  0  0  0  0  0  0
   -4.9705   25.5763    3.9201 C   0  0  0  0  0  0  0  0  0  0  0  0
  1  2  2  3
  2  3  1  0
  2  4  1  0
  4  5  1  0
  5  6  2  0
  6  7  1  0
  7  8  2  0
  8  9  1  0
  9 10  1  0
 10 11  1  0
 11 12  1  1
 11 13  1  0
 13 14  1  0
 14 15  1  0
  9 16  2  0
 16  5  1  0
 15 13  1  0
M  END
>  <Energy>  (1310) 
-13.695475346260547

>  <Energy_Delta>  (1310) 
3.9254732348711983

>  <std_smi>  (1310) 
CC(=O)Nc1cccc(NC(C)C2CC2)c1

>  <enum_smi>  (1310) 
C=C(O)Nc1cccc(NC(C)C2CC2)c1

>  <enum_code>  (1310) 
T

>  <parent_uuid>  (1310) 
80177037-97d9-4251-9583-a2fb747585df

>  <o3da_score>  (1310) 
82.526912225701722

>  <o3da_score_rel>  (1310) 
0.32855162839074831

>  <o3da_align>  (1310) 
0.39279148577575684

>  <RMSD>  (1310) 
0.41663409943078489

>  <CONVERGED>  (1310) 
0

>  <ENERGY>  (1310) 
-12.637254902983301

$$$$
37729e11-6fb0-4eb5-8aee-37ee3547353e
     RDKit          3D

 16 17  0  0  0  0  0  0  0  0999 V2000
   -6.7091   21.1855    3.4698 C   0  0  0  0  0  0  0  0  0  0  0  0
   -5.7587   22.1049    3.2925 C   0  0  0  0  0  0  0  0  0  0  0  0
   -4.6061   21.7239    2.6523 O   0  0  0  0  0  0  0  0  0  0  0  0
   -5.8869   23.4311    3.6117 N   0  0  0  0  0  0  0  0  0  0  0  0
   -4.9138   24.2795    4.1912 C   0  0  0  0  0  0  0  0  0  0  0  0
   -3.6880   23.8264    4.6818 C   0  0  0  0  0  0  0  0  0  0  0  0
   -2.7698   24.7239    5.2248 C   0  0  0  0  0  0  0  0  0  0  0  0
   -3.0564   26.0910    5.2616 C   0  0  0  0  0  0  0  0  0  0  0  0
   -4.2472   26.5925    4.7318 C   0  0  0  0  0  0  0  0  0  0  0  0
   -4.6214   27.9343    4.7871 N   0  0  0  0  0  0  0  0  0  0  0  0
   -3.6631   29.0140    5.0072 C   0  0  1  0  0  0  0  0  0  0  0  0
   -2.8165   29.2518    3.7572 C   0  0  0  0  0  0  0  0  0  0  0  0
   -4.4586   30.2567    5.3352 C   0  0  0  0  0  0  0  0  0  0  0  0
   -3.9024   31.3027    6.2706 C   0  0  0  0  0  0  0  0  0  0  0  0
   -5.0501   30.4379    6.7119 C   0  0  0  0  0  0  0  0  0  0  0  0
   -5.1731   25.6615    4.2288 C   0  0  0  0  0  0  0  0  0  0  0  0
  1  2  2  3
  2  3  1  0
  2  4  1  0
  4  5  1  0
  5  6  2  0
  6  7  1  0
  7  8  2  0
  8  9  1  0
  9 10  1  0
 10 11  1  0
 11 12  1  6
 11 13  1  0
 13 14  1  0
 14 15  1  0
  9 16  2  0
 16  5  1  0
 15 13  1  0
M  END
>  <Energy>  (1311) 
-12.762958405290837

>  <Energy_Delta>  (1311) 
4.857990175840909

>  <std_smi>  (1311) 
CC(=O)Nc1cccc(NC(C)C2CC2)c1

>  <enum_smi>  (1311) 
C=C(O)Nc1cccc(NC(C)C2CC2)c1

>  <enum_code>  (1311) 
T

>  <parent_uuid>  (1311) 
80177037-97d9-4251-9583-a2fb747585df

>  <o3da_score>  (1311) 
80.243330159879619

>  <o3da_score_rel>  (1311) 
0.31946035639164766

>  <o3da_align>  (1311) 
0.12366976982994789

>  <RMSD>  (1311) 
0.20899322400937487

>  <CONVERGED>  (1311) 
0

>  <ENERGY>  (1311) 
-17.705101081936057

$$$$
37729e11-6fb0-4eb5-8aee-37ee3547353e
     RDKit          3D

 16 17  0  0  0  0  0  0  0  0999 V2000
   -0.0980   33.0640    1.4059 C   0  0  0  0  0  0  0  0  0  0  0  0
   -0.0019   32.0553    0.5379 C   0  0  0  0  0  0  0  0  0  0  0  0
    0.6977   32.2863   -0.6210 O   0  0  0  0  0  0  0  0  0  0  0  0
   -0.4812   30.7779    0.6503 N   0  0  0  0  0  0  0  0  0  0  0  0
   -1.4640   30.2872    1.5354 C   0  0  0  0  0  0  0  0  0  0  0  0
   -2.5949   31.0281    1.8840 C   0  0  0  0  0  0  0  0  0  0  0  0
   -3.5594   30.4910    2.7346 C   0  0  0  0  0  0  0  0  0  0  0  0
   -3.4007   29.2042    3.2552 C   0  0  0  0  0  0  0  0  0  0  0  0
   -2.2700   28.4401    2.9573 C   0  0  0  0  0  0  0  0  0  0  0  0
   -2.0816   27.1266    3.3870 N   0  0  0  0  0  0  0  0  0  0  0  0
   -2.8060   26.5549    4.5189 C   0  0  2  0  0  0  0  0  0  0  0  0
   -2.2803   27.1158    5.8397 C   0  0  0  0  0  0  0  0  0  0  0  0
   -2.5948   25.0588    4.4738 C   0  0  0  0  0  0  0  0  0  0  0  0
   -3.6669   24.1145    4.9609 C   0  0  0  0  0  0  0  0  0  0  0  0
   -3.3669   24.2125    3.4911 C   0  0  0  0  0  0  0  0  0  0  0  0
   -1.3337   28.9904    2.0631 C   0  0  0  0  0  0  0  0  0  0  0  0
  1  2  2  3
  2  3  1  0
  2  4  1  0
  4  5  1  0
  5  6  2  0
  6  7  1  0
  7  8  2  0
  8  9  1  0
  9 10  1  0
 10 11  1  0
 11 12  1  1
 11 13  1  0
 13 14  1  0
 14 15  1  0
  9 16  2  0
 16  5  1  0
 15 13  1  0
M  END
>  <Energy>  (1312) 
-12.63725490274822

>  <Energy_Delta>  (1312) 
4.9836936783835259

>  <std_smi>  (1312) 
CC(=O)Nc1cccc(NC(C)C2CC2)c1

>  <enum_smi>  (1312) 
C=C(O)Nc1cccc(NC(C)C2CC2)c1

>  <enum_code>  (1312) 
T

>  <parent_uuid>  (1312) 
80177037-97d9-4251-9583-a2fb747585df

>  <o3da_score>  (1312) 
77.589679951813309

>  <o3da_score_rel>  (1312) 
0.30889578934889689

>  <o3da_align>  (1312) 
0.50678547787428951

>  <RMSD>  (1312) 
5.6900680588846233e-05

>  <CONVERGED>  (1312) 
0

>  <ENERGY>  (1312) 
-12.637254902977586

$$$$
37729e11-6fb0-4eb5-8aee-37ee3547353e
     RDKit          3D

 16 17  0  0  0  0  0  0  0  0999 V2000
   -7.0308   24.4049    1.9727 C   0  0  0  0  0  0  0  0  0  0  0  0
   -6.9915   23.5499    2.9962 C   0  0  0  0  0  0  0  0  0  0  0  0
   -8.0218   22.6484    3.1041 O   0  0  0  0  0  0  0  0  0  0  0  0
   -6.0312   23.4113    3.9631 N   0  0  0  0  0  0  0  0  0  0  0  0
   -5.0147   24.3248    4.3154 C   0  0  0  0  0  0  0  0  0  0  0  0
   -3.7523   23.8432    4.6745 C   0  0  0  0  0  0  0  0  0  0  0  0
   -2.7289   24.7260    5.0147 C   0  0  0  0  0  0  0  0  0  0  0  0
   -2.9619   26.1036    5.0237 C   0  0  0  0  0  0  0  0  0  0  0  0
   -4.2246   26.6229    4.7295 C   0  0  0  0  0  0  0  0  0  0  0  0
   -4.5124   27.9868    4.6681 N   0  0  0  0  0  0  0  0  0  0  0  0
   -3.6976   28.9984    5.3374 C   0  0  2  0  0  0  0  0  0  0  0  0
   -3.9438   28.9651    6.8470 C   0  0  0  0  0  0  0  0  0  0  0  0
   -3.9995   30.3848    4.8025 C   0  0  0  0  0  0  0  0  0  0  0  0
   -5.4002   30.8898    4.5380 C   0  0  0  0  0  0  0  0  0  0  0  0
   -4.4683   30.6242    3.3856 C   0  0  0  0  0  0  0  0  0  0  0  0
   -5.2276   25.7125    4.3502 C   0  0  0  0  0  0  0  0  0  0  0  0
  1  2  2  3
  2  3  1  0
  2  4  1  0
  4  5  1  0
  5  6  2  0
  6  7  1  0
  7  8  2  0
  8  9  1  0
  9 10  1  0
 10 11  1  0
 11 12  1  1
 11 13  1  0
 13 14  1  0
 14 15  1  0
  9 16  2  0
 16  5  1  0
 15 13  1  0
M  END
>  <Energy>  (1313) 
-12.50177486769954

>  <Energy_Delta>  (1313) 
5.1191737134322057

>  <std_smi>  (1313) 
CC(=O)Nc1cccc(NC(C)C2CC2)c1

>  <enum_smi>  (1313) 
C=C(O)Nc1cccc(NC(C)C2CC2)c1

>  <enum_code>  (1313) 
T

>  <parent_uuid>  (1313) 
80177037-97d9-4251-9583-a2fb747585df

>  <o3da_score>  (1313) 
80.6944856739768

>  <o3da_score_rel>  (1313) 
0.32125647204430535

>  <o3da_align>  (1313) 
0.20801337464372163

>  <RMSD>  (1313) 
0.12493527082349208

>  <CONVERGED>  (1313) 
0

>  <ENERGY>  (1313) 
-11.163309083877555

$$$$
37729e11-6fb0-4eb5-8aee-37ee3547353e
     RDKit          3D

 16 17  0  0  0  0  0  0  0  0999 V2000
    0.0908   32.6751    1.9323 C   0  0  0  0  0  0  0  0  0  0  0  0
   -1.0717   32.4383    2.5425 C   0  0  0  0  0  0  0  0  0  0  0  0
   -1.8620   33.5140    2.8617 O   0  0  0  0  0  0  0  0  0  0  0  0
   -1.5856   31.1916    2.7855 N   0  0  0  0  0  0  0  0  0  0  0  0
   -2.2651   30.7468    3.9456 C   0  0  0  0  0  0  0  0  0  0  0  0
   -2.3641   31.5024    5.1166 C   0  0  0  0  0  0  0  0  0  0  0  0
   -3.0617   31.0098    6.2172 C   0  0  0  0  0  0  0  0  0  0  0  0
   -3.6888   29.7651    6.1466 C   0  0  0  0  0  0  0  0  0  0  0  0
   -3.6594   28.9988    4.9743 C   0  0  0  0  0  0  0  0  0  0  0  0
   -4.2618   27.7417    4.9910 N   0  0  0  0  0  0  0  0  0  0  0  0
   -4.5803   27.0004    3.7739 C   0  0  2  0  0  0  0  0  0  0  0  0
   -5.7710   27.6289    3.0508 C   0  0  0  0  0  0  0  0  0  0  0  0
   -4.9159   25.5859    4.1873 C   0  0  0  0  0  0  0  0  0  0  0  0
   -3.8145   24.6182    4.5459 C   0  0  0  0  0  0  0  0  0  0  0  0
   -4.6001   24.4223    3.2792 C   0  0  0  0  0  0  0  0  0  0  0  0
   -2.9151   29.4981    3.8967 C   0  0  0  0  0  0  0  0  0  0  0  0
  1  2  2  3
  2  3  1  0
  2  4  1  0
  4  5  1  0
  5  6  2  0
  6  7  1  0
  7  8  2  0
  8  9  1  0
  9 10  1  0
 10 11  1  0
 11 12  1  1
 11 13  1  0
 13 14  1  0
 14 15  1  0
  9 16  2  0
 16  5  1  0
 15 13  1  0
M  END
>  <Energy>  (1314) 
-12.472176147007271

>  <Energy_Delta>  (1314) 
5.1487724341244743

>  <std_smi>  (1314) 
CC(=O)Nc1cccc(NC(C)C2CC2)c1

>  <enum_smi>  (1314) 
C=C(O)Nc1cccc(NC(C)C2CC2)c1

>  <enum_code>  (1314) 
T

>  <parent_uuid>  (1314) 
80177037-97d9-4251-9583-a2fb747585df

>  <o3da_score>  (1314) 
85.988725746533234

>  <o3da_score_rel>  (1314) 
0.34233361100441601

>  <o3da_align>  (1314) 
0.44728332867372605

>  <RMSD>  (1314) 
0.4053282195293062

>  <CONVERGED>  (1314) 
0

>  <ENERGY>  (1314) 
-17.714236961004072

$$$$
37729e11-6fb0-4eb5-8aee-37ee3547353e
     RDKit          3D

 16 17  0  0  0  0  0  0  0  0999 V2000
   -4.6130   21.8654    2.2737 C   0  0  0  0  0  0  0  0  0  0  0  0
   -5.6622   22.1666    3.0409 C   0  0  0  0  0  0  0  0  0  0  0  0
   -6.7203   21.2913    3.0327 O   0  0  0  0  0  0  0  0  0  0  0  0
   -5.8601   23.2675    3.8303 N   0  0  0  0  0  0  0  0  0  0  0  0
   -4.9028   24.1928    4.2966 C   0  0  0  0  0  0  0  0  0  0  0  0
   -3.6200   23.8083    4.6916 C   0  0  0  0  0  0  0  0  0  0  0  0
   -2.7167   24.7507    5.1798 C   0  0  0  0  0  0  0  0  0  0  0  0
   -3.0838   26.0955    5.2724 C   0  0  0  0  0  0  0  0  0  0  0  0
   -4.3460   26.5286    4.8597 C   0  0  0  0  0  0  0  0  0  0  0  0
   -4.8000   27.8412    4.9877 N   0  0  0  0  0  0  0  0  0  0  0  0
   -3.8965   28.9758    5.1582 C   0  0  1  0  0  0  0  0  0  0  0  0
   -3.1771   29.2990    3.8490 C   0  0  0  0  0  0  0  0  0  0  0  0
   -4.7380   30.1554    5.5886 C   0  0  0  0  0  0  0  0  0  0  0  0
   -4.1712   31.2126    6.5047 C   0  0  0  0  0  0  0  0  0  0  0  0
   -5.2198   30.2639    7.0148 C   0  0  0  0  0  0  0  0  0  0  0  0
   -5.2516   25.5502    4.4109 C   0  0  0  0  0  0  0  0  0  0  0  0
  1  2  2  3
  2  3  1  0
  2  4  1  0
  4  5  1  0
  5  6  2  0
  6  7  1  0
  7  8  2  0
  8  9  1  0
  9 10  1  0
 10 11  1  0
 11 12  1  6
 11 13  1  0
 13 14  1  0
 14 15  1  0
  9 16  2  0
 16  5  1  0
 15 13  1  0
M  END
>  <Energy>  (1315) 
-12.399790051729894

>  <Energy_Delta>  (1315) 
5.2211585294018512

>  <std_smi>  (1315) 
CC(=O)Nc1cccc(NC(C)C2CC2)c1

>  <enum_smi>  (1315) 
C=C(O)Nc1cccc(NC(C)C2CC2)c1

>  <enum_code>  (1315) 
T

>  <parent_uuid>  (1315) 
80177037-97d9-4251-9583-a2fb747585df

>  <o3da_score>  (1315) 
77.549708359435982

>  <o3da_score_rel>  (1315) 
0.30873665663193511

>  <o3da_align>  (1315) 
0.30130217461669218

>  <RMSD>  (1315) 
0.3052258630198954

>  <CONVERGED>  (1315) 
0

>  <ENERGY>  (1315) 
-12.637254902993568

$$$$
37729e11-6fb0-4eb5-8aee-37ee3547353e
     RDKit          3D

 16 17  0  0  0  0  0  0  0  0999 V2000
   -6.7045   21.1473    3.9139 C   0  0  0  0  0  0  0  0  0  0  0  0
   -5.7976   22.0626    3.5684 C   0  0  0  0  0  0  0  0  0  0  0  0
   -4.7482   21.6627    2.7795 O   0  0  0  0  0  0  0  0  0  0  0  0
   -5.8895   23.3986    3.8567 N   0  0  0  0  0  0  0  0  0  0  0  0
   -4.8509   24.2769    4.2448 C   0  0  0  0  0  0  0  0  0  0  0  0
   -3.5552   23.8563    4.5433 C   0  0  0  0  0  0  0  0  0  0  0  0
   -2.5686   24.7879    4.8582 C   0  0  0  0  0  0  0  0  0  0  0  0
   -2.8654   26.1546    4.8785 C   0  0  0  0  0  0  0  0  0  0  0  0
   -4.1508   26.6223    4.6120 C   0  0  0  0  0  0  0  0  0  0  0  0
   -4.5171   27.9592    4.5411 N   0  0  0  0  0  0  0  0  0  0  0  0
   -3.7673   29.1289    4.9969 C   0  0  2  0  0  0  0  0  0  0  0  0
   -2.5561   29.4360    4.1247 C   0  0  0  0  0  0  0  0  0  0  0  0
   -3.4436   29.0520    6.4648 C   0  0  0  0  0  0  0  0  0  0  0  0
   -3.5253   30.2827    7.3364 C   0  0  0  0  0  0  0  0  0  0  0  0
   -4.5374   29.1835    7.4976 C   0  0  0  0  0  0  0  0  0  0  0  0
   -5.1182   25.6584    4.2657 C   0  0  0  0  0  0  0  0  0  0  0  0
  1  2  2  3
  2  3  1  0
  2  4  1  0
  4  5  1  0
  5  6  2  0
  6  7  1  0
  7  8  2  0
  8  9  1  0
  9 10  1  0
 10 11  1  0
 11 12  1  6
 11 13  1  0
 13 14  1  0
 14 15  1  0
  9 16  2  0
 16  5  1  0
 15 13  1  0
M  END
>  <Energy>  (1316) 
-12.310841486528872

>  <Energy_Delta>  (1316) 
5.3101070946028734

>  <std_smi>  (1316) 
CC(=O)Nc1cccc(NC(C)C2CC2)c1

>  <enum_smi>  (1316) 
C=C(O)Nc1cccc(NC(C)C2CC2)c1

>  <enum_code>  (1316) 
T

>  <parent_uuid>  (1316) 
80177037-97d9-4251-9583-a2fb747585df

>  <o3da_score>  (1316) 
79.055244470783947

>  <o3da_score_rel>  (1316) 
0.3147304146394036

>  <o3da_align>  (1316) 
0.23081927008019212

>  <RMSD>  (1316) 
0.18691332539137359

>  <CONVERGED>  (1316) 
0

>  <ENERGY>  (1316) 
-12.758673238258156

$$$$
37729e11-6fb0-4eb5-8aee-37ee3547353e
     RDKit          3D

 16 17  0  0  0  0  0  0  0  0999 V2000
    0.2993   32.4483   -0.6989 C   0  0  0  0  0  0  0  0  0  0  0  0
    0.0371   31.9265    0.5006 C   0  0  0  0  0  0  0  0  0  0  0  0
    0.5514   32.5596    1.6044 O   0  0  0  0  0  0  0  0  0  0  0  0
   -0.6243   30.7450    0.7097 N   0  0  0  0  0  0  0  0  0  0  0  0
   -1.5810   30.4545    1.7112 C   0  0  0  0  0  0  0  0  0  0  0  0
   -2.1245   31.4182    2.5623 C   0  0  0  0  0  0  0  0  0  0  0  0
   -3.0524   31.0557    3.5372 C   0  0  0  0  0  0  0  0  0  0  0  0
   -3.4288   29.7187    3.6906 C   0  0  0  0  0  0  0  0  0  0  0  0
   -2.8659   28.7152    2.8999 C   0  0  0  0  0  0  0  0  0  0  0  0
   -3.2391   27.3714    2.9627 N   0  0  0  0  0  0  0  0  0  0  0  0
   -3.7787   26.7654    4.1793 C   0  0  1  0  0  0  0  0  0  0  0  0
   -4.5458   25.5034    3.7743 C   0  0  0  0  0  0  0  0  0  0  0  0
   -2.6438   26.4018    5.1045 C   0  0  0  0  0  0  0  0  0  0  0  0
   -2.1260   27.3788    6.1322 C   0  0  0  0  0  0  0  0  0  0  0  0
   -2.8999   26.1697    6.5745 C   0  0  0  0  0  0  0  0  0  0  0  0
   -1.9679   29.1144    1.8938 C   0  0  0  0  0  0  0  0  0  0  0  0
  1  2  2  3
  2  3  1  0
  2  4  1  0
  4  5  1  0
  5  6  2  0
  6  7  1  0
  7  8  2  0
  8  9  1  0
  9 10  1  0
 10 11  1  0
 11 12  1  6
 11 13  1  0
 13 14  1  0
 14 15  1  0
  9 16  2  0
 16  5  1  0
 15 13  1  0
M  END
>  <Energy>  (1317) 
-12.209050302154372

>  <Energy_Delta>  (1317) 
5.4118982789773735

>  <std_smi>  (1317) 
CC(=O)Nc1cccc(NC(C)C2CC2)c1

>  <enum_smi>  (1317) 
C=C(O)Nc1cccc(NC(C)C2CC2)c1

>  <enum_code>  (1317) 
T

>  <parent_uuid>  (1317) 
80177037-97d9-4251-9583-a2fb747585df

>  <o3da_score>  (1317) 
89.290280953148113

>  <o3da_score_rel>  (1317) 
0.35547758198431473

>  <o3da_align>  (1317) 
0.55213334187151986

>  <RMSD>  (1317) 
0.21746803148068405

>  <CONVERGED>  (1317) 
0

>  <ENERGY>  (1317) 
-17.20388170090942

$$$$
37729e11-6fb0-4eb5-8aee-37ee3547353e
     RDKit          3D

 16 17  0  0  0  0  0  0  0  0999 V2000
   -0.9894   33.4459    3.7030 C   0  0  0  0  0  0  0  0  0  0  0  0
   -1.0520   32.5661    2.7019 C   0  0  0  0  0  0  0  0  0  0  0  0
   -0.2632   32.8041    1.6035 O   0  0  0  0  0  0  0  0  0  0  0  0
   -1.7807   31.4093    2.6198 N   0  0  0  0  0  0  0  0  0  0  0  0
   -2.8879   31.0195    3.4052 C   0  0  0  0  0  0  0  0  0  0  0  0
   -3.8647   31.9286    3.8202 C   0  0  0  0  0  0  0  0  0  0  0  0
   -4.9398   31.5068    4.5985 C   0  0  0  0  0  0  0  0  0  0  0  0
   -5.0599   30.1618    4.9493 C   0  0  0  0  0  0  0  0  0  0  0  0
   -4.1354   29.2067    4.5066 C   0  0  0  0  0  0  0  0  0  0  0  0
   -4.2885   27.8907    4.9387 N   0  0  0  0  0  0  0  0  0  0  0  0
   -3.6111   26.7567    4.3129 C   0  0  2  0  0  0  0  0  0  0  0  0
   -4.2284   26.4597    2.9466 C   0  0  0  0  0  0  0  0  0  0  0  0
   -3.6855   25.6194    5.3078 C   0  0  0  0  0  0  0  0  0  0  0  0
   -3.7491   24.1590    4.9251 C   0  0  0  0  0  0  0  0  0  0  0  0
   -4.9480   24.8233    5.5472 C   0  0  0  0  0  0  0  0  0  0  0  0
   -3.0413   29.6650    3.7587 C   0  0  0  0  0  0  0  0  0  0  0  0
  1  2  2  3
  2  3  1  0
  2  4  1  0
  4  5  1  0
  5  6  2  0
  6  7  1  0
  7  8  2  0
  8  9  1  0
  9 10  1  0
 10 11  1  0
 11 12  1  6
 11 13  1  0
 13 14  1  0
 14 15  1  0
  9 16  2  0
 16  5  1  0
 15 13  1  0
M  END
>  <Energy>  (1318) 
-11.616620229584161

>  <Energy_Delta>  (1318) 
6.0043283515475849

>  <std_smi>  (1318) 
CC(=O)Nc1cccc(NC(C)C2CC2)c1

>  <enum_smi>  (1318) 
C=C(O)Nc1cccc(NC(C)C2CC2)c1

>  <enum_code>  (1318) 
T

>  <parent_uuid>  (1318) 
80177037-97d9-4251-9583-a2fb747585df

>  <o3da_score>  (1318) 
83.198704695010818

>  <o3da_score_rel>  (1318) 
0.33122613181974497

>  <o3da_align>  (1318) 
0.53340133450472393

>  <RMSD>  (1318) 
0.14244290616378413

>  <CONVERGED>  (1318) 
0

>  <ENERGY>  (1318) 
-10.25056975252245

$$$$
37729e11-6fb0-4eb5-8aee-37ee3547353e
     RDKit          3D

 16 17  0  0  0  0  0  0  0  0999 V2000
   -1.5043   33.6585    3.4747 C   0  0  0  0  0  0  0  0  0  0  0  0
   -1.1911   32.6673    2.6383 C   0  0  0  0  0  0  0  0  0  0  0  0
   -0.4779   32.9953    1.5116 O   0  0  0  0  0  0  0  0  0  0  0  0
   -1.5147   31.3391    2.7210 N   0  0  0  0  0  0  0  0  0  0  0  0
   -1.9594   30.6194    3.8509 C   0  0  0  0  0  0  0  0  0  0  0  0
   -1.4662   30.8609    5.1346 C   0  0  0  0  0  0  0  0  0  0  0  0
   -1.9358   30.1285    6.2234 C   0  0  0  0  0  0  0  0  0  0  0  0
   -2.8902   29.1254    6.0377 C   0  0  0  0  0  0  0  0  0  0  0  0
   -3.3657   28.8096    4.7629 C   0  0  0  0  0  0  0  0  0  0  0  0
   -4.3563   27.8611    4.5148 N   0  0  0  0  0  0  0  0  0  0  0  0
   -4.7018   26.8000    5.4593 C   0  0  2  0  0  0  0  0  0  0  0  0
   -3.6027   25.7383    5.4874 C   0  0  0  0  0  0  0  0  0  0  0  0
   -6.0664   26.2950    5.0446 C   0  0  0  0  0  0  0  0  0  0  0  0
   -6.5393   24.8725    5.2350 C   0  0  0  0  0  0  0  0  0  0  0  0
   -6.2773   25.3956    3.8481 C   0  0  0  0  0  0  0  0  0  0  0  0
   -2.9046   29.5908    3.6878 C   0  0  0  0  0  0  0  0  0  0  0  0
  1  2  2  3
  2  3  1  0
  2  4  1  0
  4  5  1  0
  5  6  2  0
  6  7  1  0
  7  8  2  0
  8  9  1  0
  9 10  1  0
 10 11  1  0
 11 12  1  6
 11 13  1  0
 13 14  1  0
 14 15  1  0
  9 16  2  0
 16  5  1  0
 15 13  1  0
M  END
>  <Energy>  (1319) 
-11.563694181409177

>  <Energy_Delta>  (1319) 
6.0572543997225683

>  <std_smi>  (1319) 
CC(=O)Nc1cccc(NC(C)C2CC2)c1

>  <enum_smi>  (1319) 
C=C(O)Nc1cccc(NC(C)C2CC2)c1

>  <enum_code>  (1319) 
T

>  <parent_uuid>  (1319) 
80177037-97d9-4251-9583-a2fb747585df

>  <o3da_score>  (1319) 
80.484942258918409

>  <o3da_score_rel>  (1319) 
0.32042224926316332

>  <o3da_align>  (1319) 
0.41183827825358965

>  <RMSD>  (1319) 
0.15124506861026293

>  <CONVERGED>  (1319) 
0

>  <ENERGY>  (1319) 
-10.258928624363808

$$$$
37729e11-6fb0-4eb5-8aee-37ee3547353e
     RDKit          3D

 16 17  0  0  0  0  0  0  0  0999 V2000
   -1.8795   22.1672    6.6536 C   0  0  0  0  0  0  0  0  0  0  0  0
   -1.0695   23.0362    6.0463 C   0  0  0  0  0  0  0  0  0  0  0  0
    0.2713   22.7403    6.0267 O   0  0  0  0  0  0  0  0  0  0  0  0
   -1.3813   24.2308    5.4534 N   0  0  0  0  0  0  0  0  0  0  0  0
   -2.6498   24.6921    5.0374 C   0  0  0  0  0  0  0  0  0  0  0  0
   -3.5986   23.8445    4.4594 C   0  0  0  0  0  0  0  0  0  0  0  0
   -4.8414   24.3355    4.0675 C   0  0  0  0  0  0  0  0  0  0  0  0
   -5.1372   25.6894    4.2285 C   0  0  0  0  0  0  0  0  0  0  0  0
   -4.1938   26.5862    4.7480 C   0  0  0  0  0  0  0  0  0  0  0  0
   -4.5796   27.9158    4.9304 N   0  0  0  0  0  0  0  0  0  0  0  0
   -3.6172   29.0028    5.1119 C   0  0  2  0  0  0  0  0  0  0  0  0
   -4.3601   30.1795    5.7482 C   0  0  0  0  0  0  0  0  0  0  0  0
   -2.9658   29.3069    3.7827 C   0  0  0  0  0  0  0  0  0  0  0  0
   -3.7290   29.9283    2.6350 C   0  0  0  0  0  0  0  0  0  0  0  0
   -2.6215   30.6981    3.3013 C   0  0  0  0  0  0  0  0  0  0  0  0
   -2.9667   26.0576    5.1735 C   0  0  0  0  0  0  0  0  0  0  0  0
  1  2  2  3
  2  3  1  0
  2  4  1  0
  4  5  1  0
  5  6  2  0
  6  7  1  0
  7  8  2  0
  8  9  1  0
  9 10  1  0
 10 11  1  0
 11 12  1  6
 11 13  1  0
 13 14  1  0
 14 15  1  0
  9 16  2  0
 16  5  1  0
 15 13  1  0
M  END
>  <Energy>  (1320) 
-11.416928807826427

>  <Energy_Delta>  (1320) 
6.2040197733053191

>  <std_smi>  (1320) 
CC(=O)Nc1cccc(NC(C)C2CC2)c1

>  <enum_smi>  (1320) 
C=C(O)Nc1cccc(NC(C)C2CC2)c1

>  <enum_code>  (1320) 
T

>  <parent_uuid>  (1320) 
80177037-97d9-4251-9583-a2fb747585df

>  <o3da_score>  (1320) 
85.572300523509711

>  <o3da_score_rel>  (1320) 
0.34067576168669067

>  <o3da_align>  (1320) 
0.22967791920828184

>  <RMSD>  (1320) 
0.14583209808674222

>  <CONVERGED>  (1320) 
0

>  <ENERGY>  (1320) 
-10.063428179196364

$$$$
37729e11-6fb0-4eb5-8aee-37ee3547353e
     RDKit          3D

 16 17  0  0  0  0  0  0  0  0999 V2000
   -5.6225   21.3804    5.1055 C   0  0  0  0  0  0  0  0  0  0  0  0
   -5.9766   22.0129    3.9854 C   0  0  0  0  0  0  0  0  0  0  0  0
   -6.6933   21.2978    3.0577 O   0  0  0  0  0  0  0  0  0  0  0  0
   -5.7558   23.3167    3.6287 N   0  0  0  0  0  0  0  0  0  0  0  0
   -4.8258   24.2248    4.1788 C   0  0  0  0  0  0  0  0  0  0  0  0
   -3.5497   23.8338    4.5887 C   0  0  0  0  0  0  0  0  0  0  0  0
   -2.6637   24.7634    5.1303 C   0  0  0  0  0  0  0  0  0  0  0  0
   -3.0353   26.1052    5.2465 C   0  0  0  0  0  0  0  0  0  0  0  0
   -4.2787   26.5508    4.7926 C   0  0  0  0  0  0  0  0  0  0  0  0
   -4.7358   27.8617    4.9288 N   0  0  0  0  0  0  0  0  0  0  0  0
   -3.8405   28.9939    5.1587 C   0  0  1  0  0  0  0  0  0  0  0  0
   -3.0935   29.3496    3.8717 C   0  0  0  0  0  0  0  0  0  0  0  0
   -4.6071   30.2050    5.6538 C   0  0  0  0  0  0  0  0  0  0  0  0
   -5.9265   30.6543    5.0673 C   0  0  0  0  0  0  0  0  0  0  0  0
   -5.8794   30.0864    6.4610 C   0  0  0  0  0  0  0  0  0  0  0  0
   -5.1680   25.5845    4.2875 C   0  0  0  0  0  0  0  0  0  0  0  0
  1  2  2  3
  2  3  1  0
  2  4  1  0
  4  5  1  0
  5  6  2  0
  6  7  1  0
  7  8  2  0
  8  9  1  0
  9 10  1  0
 10 11  1  0
 11 12  1  6
 11 13  1  0
 13 14  1  0
 14 15  1  0
  9 16  2  0
 16  5  1  0
 15 13  1  0
M  END
>  <Energy>  (1321) 
-11.35897967918573

>  <Energy_Delta>  (1321) 
6.2619689019460161

>  <std_smi>  (1321) 
CC(=O)Nc1cccc(NC(C)C2CC2)c1

>  <enum_smi>  (1321) 
C=C(O)Nc1cccc(NC(C)C2CC2)c1

>  <enum_code>  (1321) 
T

>  <parent_uuid>  (1321) 
80177037-97d9-4251-9583-a2fb747585df

>  <o3da_score>  (1321) 
77.430578588245595

>  <o3da_score_rel>  (1321) 
0.30826238370376136

>  <o3da_align>  (1321) 
0.30381448715921788

>  <RMSD>  (1321) 
0.22567183779245639

>  <CONVERGED>  (1321) 
0

>  <ENERGY>  (1321) 
-11.081302620872355

$$$$
37729e11-6fb0-4eb5-8aee-37ee3547353e
     RDKit          3D

 16 17  0  0  0  0  0  0  0  0999 V2000
   -1.5802   33.6557    3.6556 C   0  0  0  0  0  0  0  0  0  0  0  0
   -1.2629   32.7411    2.7374 C   0  0  0  0  0  0  0  0  0  0  0  0
   -0.6073   33.1788    1.6130 O   0  0  0  0  0  0  0  0  0  0  0  0
   -1.5327   31.3990    2.7342 N   0  0  0  0  0  0  0  0  0  0  0  0
   -1.9126   30.5807    3.8187 C   0  0  0  0  0  0  0  0  0  0  0  0
   -1.3844   30.7435    5.1008 C   0  0  0  0  0  0  0  0  0  0  0  0
   -1.7609   29.8896    6.1359 C   0  0  0  0  0  0  0  0  0  0  0  0
   -2.6795   28.8630    5.9029 C   0  0  0  0  0  0  0  0  0  0  0  0
   -3.2562   28.6836    4.6436 C   0  0  0  0  0  0  0  0  0  0  0  0
   -4.1252   27.6398    4.3235 N   0  0  0  0  0  0  0  0  0  0  0  0
   -4.8646   26.8879    5.3360 C   0  0  1  0  0  0  0  0  0  0  0  0
   -6.0153   27.7311    5.8890 C   0  0  0  0  0  0  0  0  0  0  0  0
   -5.4110   25.5939    4.7643 C   0  0  0  0  0  0  0  0  0  0  0  0
   -4.7296   24.8525    3.6371 C   0  0  0  0  0  0  0  0  0  0  0  0
   -6.0721   25.4946    3.4079 C   0  0  0  0  0  0  0  0  0  0  0  0
   -2.8260   29.5327    3.6075 C   0  0  0  0  0  0  0  0  0  0  0  0
  1  2  2  3
  2  3  1  0
  2  4  1  0
  4  5  1  0
  5  6  2  0
  6  7  1  0
  7  8  2  0
  8  9  1  0
  9 10  1  0
 10 11  1  0
 11 12  1  6
 11 13  1  0
 13 14  1  0
 14 15  1  0
  9 16  2  0
 16  5  1  0
 15 13  1  0
M  END
>  <Energy>  (1322) 
-11.248184251605036

>  <Energy_Delta>  (1322) 
6.37276432952671

>  <std_smi>  (1322) 
CC(=O)Nc1cccc(NC(C)C2CC2)c1

>  <enum_smi>  (1322) 
C=C(O)Nc1cccc(NC(C)C2CC2)c1

>  <enum_code>  (1322) 
T

>  <parent_uuid>  (1322) 
80177037-97d9-4251-9583-a2fb747585df

>  <o3da_score>  (1322) 
82.180994104136545

>  <o3da_score_rel>  (1322) 
0.3271744780883199

>  <o3da_align>  (1322) 
0.37680029085530159

>  <RMSD>  (1322) 
0.35508398036999228

>  <CONVERGED>  (1322) 
0

>  <ENERGY>  (1322) 
-11.210421544100015

$$$$
37729e11-6fb0-4eb5-8aee-37ee3547353e
     RDKit          3D

 16 17  0  0  0  0  0  0  0  0999 V2000
   -0.8276   22.5255    3.9963 C   0  0  0  0  0  0  0  0  0  0  0  0
   -0.7041   23.1934    5.1447 C   0  0  0  0  0  0  0  0  0  0  0  0
    0.3119   22.8153    5.9875 O   0  0  0  0  0  0  0  0  0  0  0  0
   -1.4394   24.2533    5.6050 N   0  0  0  0  0  0  0  0  0  0  0  0
   -2.7041   24.6955    5.1579 C   0  0  0  0  0  0  0  0  0  0  0  0
   -3.7135   23.8065    4.7790 C   0  0  0  0  0  0  0  0  0  0  0  0
   -4.9464   24.2810    4.3384 C   0  0  0  0  0  0  0  0  0  0  0  0
   -5.1891   25.6542    4.2966 C   0  0  0  0  0  0  0  0  0  0  0  0
   -4.2266   26.5792    4.7230 C   0  0  0  0  0  0  0  0  0  0  0  0
   -4.5204   27.9375    4.6027 N   0  0  0  0  0  0  0  0  0  0  0  0
   -3.7608   28.9798    5.2895 C   0  0  2  0  0  0  0  0  0  0  0  0
   -4.1003   28.9888    6.7812 C   0  0  0  0  0  0  0  0  0  0  0  0
   -4.0438   30.3454    4.6943 C   0  0  0  0  0  0  0  0  0  0  0  0
   -5.4308   30.8250    4.3295 C   0  0  0  0  0  0  0  0  0  0  0  0
   -4.4273   30.5359    3.2448 C   0  0  0  0  0  0  0  0  0  0  0  0
   -2.9802   26.0762    5.1226 C   0  0  0  0  0  0  0  0  0  0  0  0
  1  2  2  3
  2  3  1  0
  2  4  1  0
  4  5  1  0
  5  6  2  0
  6  7  1  0
  7  8  2  0
  8  9  1  0
  9 10  1  0
 10 11  1  0
 11 12  1  1
 11 13  1  0
 13 14  1  0
 14 15  1  0
  9 16  2  0
 16  5  1  0
 15 13  1  0
M  END
>  <Energy>  (1323) 
-11.062355044320825

>  <Energy_Delta>  (1323) 
6.5585935368109212

>  <std_smi>  (1323) 
CC(=O)Nc1cccc(NC(C)C2CC2)c1

>  <enum_smi>  (1323) 
C=C(O)Nc1cccc(NC(C)C2CC2)c1

>  <enum_code>  (1323) 
T

>  <parent_uuid>  (1323) 
80177037-97d9-4251-9583-a2fb747585df

>  <o3da_score>  (1323) 
73.356826312236478

>  <o3da_score_rel>  (1323) 
0.29204418399355248

>  <o3da_align>  (1323) 
0.17715170646049444

>  <RMSD>  (1323) 
6.9479281108365389e-05

>  <CONVERGED>  (1323) 
0

>  <ENERGY>  (1323) 
-11.062355059692925

$$$$
37729e11-6fb0-4eb5-8aee-37ee3547353e
     RDKit          3D

 16 17  0  0  0  0  0  0  0  0999 V2000
   -0.3456   22.2217    6.1683 C   0  0  0  0  0  0  0  0  0  0  0  0
   -1.0961   22.8855    5.2875 C   0  0  0  0  0  0  0  0  0  0  0  0
   -1.2752   22.3293    4.0457 O   0  0  0  0  0  0  0  0  0  0  0  0
   -1.6203   24.1342    5.4937 N   0  0  0  0  0  0  0  0  0  0  0  0
   -2.9021   24.6086    5.1228 C   0  0  0  0  0  0  0  0  0  0  0  0
   -3.9086   23.7871    4.6108 C   0  0  0  0  0  0  0  0  0  0  0  0
   -5.1406   24.3262    4.2497 C   0  0  0  0  0  0  0  0  0  0  0  0
   -5.3661   25.6980    4.3759 C   0  0  0  0  0  0  0  0  0  0  0  0
   -4.3670   26.5674    4.8362 C   0  0  0  0  0  0  0  0  0  0  0  0
   -4.6883   27.9127    4.9850 N   0  0  0  0  0  0  0  0  0  0  0  0
   -3.7405   29.0128    5.1849 C   0  0  2  0  0  0  0  0  0  0  0  0
   -2.7695   29.1382    4.0150 C   0  0  0  0  0  0  0  0  0  0  0  0
   -3.1296   28.9671    6.5647 C   0  0  0  0  0  0  0  0  0  0  0  0
   -1.6416   28.9464    6.8471 C   0  0  0  0  0  0  0  0  0  0  0  0
   -2.4318   30.1928    7.1137 C   0  0  0  0  0  0  0  0  0  0  0  0
   -3.1541   25.9908    5.2294 C   0  0  0  0  0  0  0  0  0  0  0  0
  1  2  2  3
  2  3  1  0
  2  4  1  0
  4  5  1  0
  5  6  2  0
  6  7  1  0
  7  8  2  0
  8  9  1  0
  9 10  1  0
 10 11  1  0
 11 12  1  6
 11 13  1  0
 13 14  1  0
 14 15  1  0
  9 16  2  0
 16  5  1  0
 15 13  1  0
M  END
>  <Energy>  (1324) 
-10.832608246732418

>  <Energy_Delta>  (1324) 
6.7883403343993276

>  <std_smi>  (1324) 
CC(=O)Nc1cccc(NC(C)C2CC2)c1

>  <enum_smi>  (1324) 
C=C(O)Nc1cccc(NC(C)C2CC2)c1

>  <enum_code>  (1324) 
T

>  <parent_uuid>  (1324) 
80177037-97d9-4251-9583-a2fb747585df

>  <o3da_score>  (1324) 
79.498882619737458

>  <o3da_score_rel>  (1324) 
0.31649660256918216

>  <o3da_align>  (1324) 
0.5172489094824726

>  <RMSD>  (1324) 
0.17811895160210633

>  <CONVERGED>  (1324) 
0

>  <ENERGY>  (1324) 
-11.32091817102822

$$$$
37729e11-6fb0-4eb5-8aee-37ee3547353e
     RDKit          3D

 16 17  0  0  0  0  0  0  0  0999 V2000
    0.2338   32.4594   -0.7628 C   0  0  0  0  0  0  0  0  0  0  0  0
    0.0309   31.9939    0.4709 C   0  0  0  0  0  0  0  0  0  0  0  0
    0.4362   32.7715    1.5266 O   0  0  0  0  0  0  0  0  0  0  0  0
   -0.4591   30.7487    0.7632 N   0  0  0  0  0  0  0  0  0  0  0  0
   -1.3687   30.3904    1.7857 C   0  0  0  0  0  0  0  0  0  0  0  0
   -2.0368   31.3198    2.5850 C   0  0  0  0  0  0  0  0  0  0  0  0
   -2.8703   30.8941    3.6181 C   0  0  0  0  0  0  0  0  0  0  0  0
   -3.0486   29.5303    3.8641 C   0  0  0  0  0  0  0  0  0  0  0  0
   -2.4234   28.5665    3.0701 C   0  0  0  0  0  0  0  0  0  0  0  0
   -2.5016   27.1953    3.3044 N   0  0  0  0  0  0  0  0  0  0  0  0
   -3.5636   26.5790    4.0982 C   0  0  1  0  0  0  0  0  0  0  0  0
   -4.8789   26.5880    3.3200 C   0  0  0  0  0  0  0  0  0  0  0  0
   -3.0589   25.2054    4.4827 C   0  0  0  0  0  0  0  0  0  0  0  0
   -3.9483   24.0020    4.6923 C   0  0  0  0  0  0  0  0  0  0  0  0
   -3.0161   24.0479    3.5114 C   0  0  0  0  0  0  0  0  0  0  0  0
   -1.5593   29.0238    2.0594 C   0  0  0  0  0  0  0  0  0  0  0  0
  1  2  2  3
  2  3  1  0
  2  4  1  0
  4  5  1  0
  5  6  2  0
  6  7  1  0
  7  8  2  0
  8  9  1  0
  9 10  1  0
 10 11  1  0
 11 12  1  6
 11 13  1  0
 13 14  1  0
 14 15  1  0
  9 16  2  0
 16  5  1  0
 15 13  1  0
M  END
>  <Energy>  (1325) 
-10.372598896857097

>  <Energy_Delta>  (1325) 
7.2483496842746487

>  <std_smi>  (1325) 
CC(=O)Nc1cccc(NC(C)C2CC2)c1

>  <enum_smi>  (1325) 
C=C(O)Nc1cccc(NC(C)C2CC2)c1

>  <enum_code>  (1325) 
T

>  <parent_uuid>  (1325) 
80177037-97d9-4251-9583-a2fb747585df

>  <o3da_score>  (1325) 
88.491012213767831

>  <o3da_score_rel>  (1325) 
0.35229557700238801

>  <o3da_align>  (1325) 
0.54575534495627531

>  <RMSD>  (1325) 
0.2514227553388978

>  <CONVERGED>  (1325) 
0

>  <ENERGY>  (1325) 
-15.372829148828659

$$$$
37729e11-6fb0-4eb5-8aee-37ee3547353e
     RDKit          3D

 16 17  0  0  0  0  0  0  0  0999 V2000
   -6.9288   24.4997    1.8355 C   0  0  0  0  0  0  0  0  0  0  0  0
   -6.8771   23.5808    2.8015 C   0  0  0  0  0  0  0  0  0  0  0  0
   -7.8788   22.6421    2.8325 O   0  0  0  0  0  0  0  0  0  0  0  0
   -5.9276   23.4098    3.7733 N   0  0  0  0  0  0  0  0  0  0  0  0
   -4.9503   24.3302    4.2073 C   0  0  0  0  0  0  0  0  0  0  0  0
   -3.6826   23.8661    4.5706 C   0  0  0  0  0  0  0  0  0  0  0  0
   -2.7085   24.7522    5.0274 C   0  0  0  0  0  0  0  0  0  0  0  0
   -2.9894   26.1174    5.1237 C   0  0  0  0  0  0  0  0  0  0  0  0
   -4.2353   26.6259    4.7488 C   0  0  0  0  0  0  0  0  0  0  0  0
   -4.6036   27.9629    4.8918 N   0  0  0  0  0  0  0  0  0  0  0  0
   -3.6322   29.0516    4.9807 C   0  0  1  0  0  0  0  0  0  0  0  0
   -2.9797   29.2918    3.6196 C   0  0  0  0  0  0  0  0  0  0  0  0
   -4.3799   30.2382    5.5483 C   0  0  0  0  0  0  0  0  0  0  0  0
   -4.0598   31.6788    5.2231 C   0  0  0  0  0  0  0  0  0  0  0  0
   -5.3426   31.0663    4.7281 C   0  0  0  0  0  0  0  0  0  0  0  0
   -5.2113   25.7047    4.3284 C   0  0  0  0  0  0  0  0  0  0  0  0
  1  2  2  3
  2  3  1  0
  2  4  1  0
  4  5  1  0
  5  6  2  0
  6  7  1  0
  7  8  2  0
  8  9  1  0
  9 10  1  0
 10 11  1  0
 11 12  1  6
 11 13  1  0
 13 14  1  0
 14 15  1  0
  9 16  2  0
 16  5  1  0
 15 13  1  0
M  END
>  <Energy>  (1326) 
-10.341995956464478

>  <Energy_Delta>  (1326) 
7.2789526246672676

>  <std_smi>  (1326) 
CC(=O)Nc1cccc(NC(C)C2CC2)c1

>  <enum_smi>  (1326) 
C=C(O)Nc1cccc(NC(C)C2CC2)c1

>  <enum_code>  (1326) 
T

>  <parent_uuid>  (1326) 
80177037-97d9-4251-9583-a2fb747585df

>  <o3da_score>  (1326) 
87.345546627099822

>  <o3da_score_rel>  (1326) 
0.34773531207043373

>  <o3da_align>  (1326) 
0.18304941900359389

>  <RMSD>  (1326) 
6.1973239698674413e-05

>  <CONVERGED>  (1326) 
0

>  <ENERGY>  (1326) 
-10.341995957188081

$$$$
37729e11-6fb0-4eb5-8aee-37ee3547353e
     RDKit          3D

 16 17  0  0  0  0  0  0  0  0999 V2000
   -1.0514   33.4604    3.6169 C   0  0  0  0  0  0  0  0  0  0  0  0
   -1.0922   32.5561    2.6368 C   0  0  0  0  0  0  0  0  0  0  0  0
   -0.2925   32.7763    1.5425 O   0  0  0  0  0  0  0  0  0  0  0  0
   -1.8073   31.3897    2.5739 N   0  0  0  0  0  0  0  0  0  0  0  0
   -2.9199   31.0067    3.3550 C   0  0  0  0  0  0  0  0  0  0  0  0
   -3.9114   31.9147    3.7360 C   0  0  0  0  0  0  0  0  0  0  0  0
   -4.9915   31.5000    4.5113 C   0  0  0  0  0  0  0  0  0  0  0  0
   -5.1015   30.1626    4.8931 C   0  0  0  0  0  0  0  0  0  0  0  0
   -4.1614   29.2074    4.4849 C   0  0  0  0  0  0  0  0  0  0  0  0
   -4.3057   27.9005    4.9469 N   0  0  0  0  0  0  0  0  0  0  0  0
   -3.6085   26.7593    4.3570 C   0  0  2  0  0  0  0  0  0  0  0  0
   -4.2056   26.4227    2.9909 C   0  0  0  0  0  0  0  0  0  0  0  0
   -3.6829   25.6456    5.3782 C   0  0  0  0  0  0  0  0  0  0  0  0
   -4.9397   24.8417    5.6215 C   0  0  0  0  0  0  0  0  0  0  0  0
   -3.7262   24.1758    5.0303 C   0  0  0  0  0  0  0  0  0  0  0  0
   -3.0631   29.6595    3.7393 C   0  0  0  0  0  0  0  0  0  0  0  0
  1  2  2  3
  2  3  1  0
  2  4  1  0
  4  5  1  0
  5  6  2  0
  6  7  1  0
  7  8  2  0
  8  9  1  0
  9 10  1  0
 10 11  1  0
 11 12  1  6
 11 13  1  0
 13 14  1  0
 14 15  1  0
  9 16  2  0
 16  5  1  0
 15 13  1  0
M  END
>  <Energy>  (1327) 
-10.250569751179775

>  <Energy_Delta>  (1327) 
7.3703788299519708

>  <std_smi>  (1327) 
CC(=O)Nc1cccc(NC(C)C2CC2)c1

>  <enum_smi>  (1327) 
C=C(O)Nc1cccc(NC(C)C2CC2)c1

>  <enum_code>  (1327) 
T

>  <parent_uuid>  (1327) 
80177037-97d9-4251-9583-a2fb747585df

>  <o3da_score>  (1327) 
83.255144361681559

>  <o3da_score_rel>  (1327) 
0.33145082633321216

>  <o3da_align>  (1327) 
0.53839150949101977

>  <RMSD>  (1327) 
7.3186348948531502e-05

>  <CONVERGED>  (1327) 
0

>  <ENERGY>  (1327) 
-10.250569752515375

$$$$
37729e11-6fb0-4eb5-8aee-37ee3547353e
     RDKit          3D

 16 17  0  0  0  0  0  0  0  0999 V2000
    0.3914   22.7762    5.7052 C   0  0  0  0  0  0  0  0  0  0  0  0
   -0.8744   23.1410    5.9158 C   0  0  0  0  0  0  0  0  0  0  0  0
   -1.7210   22.2253    6.4888 O   0  0  0  0  0  0  0  0  0  0  0  0
   -1.3696   24.3993    5.6976 N   0  0  0  0  0  0  0  0  0  0  0  0
   -2.6300   24.7565    5.1609 C   0  0  0  0  0  0  0  0  0  0  0  0
   -3.5232   23.8317    4.6140 C   0  0  0  0  0  0  0  0  0  0  0  0
   -4.7750   24.2415    4.1605 C   0  0  0  0  0  0  0  0  0  0  0  0
   -5.1431   25.5846    4.2467 C   0  0  0  0  0  0  0  0  0  0  0  0
   -4.2674   26.5504    4.7599 C   0  0  0  0  0  0  0  0  0  0  0  0
   -4.7286   27.8611    4.8781 N   0  0  0  0  0  0  0  0  0  0  0  0
   -3.8403   28.9999    5.1003 C   0  0  1  0  0  0  0  0  0  0  0  0
   -3.0750   29.3346    3.8186 C   0  0  0  0  0  0  0  0  0  0  0  0
   -4.6168   30.2174    5.5628 C   0  0  0  0  0  0  0  0  0  0  0  0
   -5.9022   30.1101    6.3507 C   0  0  0  0  0  0  0  0  0  0  0  0
   -5.9270   30.6543    4.9470 C   0  0  0  0  0  0  0  0  0  0  0  0
   -3.0304   26.1046    5.2451 C   0  0  0  0  0  0  0  0  0  0  0  0
  1  2  2  3
  2  3  1  0
  2  4  1  0
  4  5  1  0
  5  6  2  0
  6  7  1  0
  7  8  2  0
  8  9  1  0
  9 10  1  0
 10 11  1  0
 11 12  1  6
 11 13  1  0
 13 14  1  0
 14 15  1  0
  9 16  2  0
 16  5  1  0
 15 13  1  0
M  END
>  <Energy>  (1328) 
-10.114803744787375

>  <Energy_Delta>  (1328) 
7.5061448363443706

>  <std_smi>  (1328) 
CC(=O)Nc1cccc(NC(C)C2CC2)c1

>  <enum_smi>  (1328) 
C=C(O)Nc1cccc(NC(C)C2CC2)c1

>  <enum_code>  (1328) 
T

>  <parent_uuid>  (1328) 
80177037-97d9-4251-9583-a2fb747585df

>  <o3da_score>  (1328) 
77.569141998806586

>  <o3da_score_rel>  (1328) 
0.30881402477389719

>  <o3da_align>  (1328) 
0.29344350338532343

>  <RMSD>  (1328) 
0.25240836348038054

>  <CONVERGED>  (1328) 
0

>  <ENERGY>  (1328) 
-16.211021453386071

$$$$
37729e11-6fb0-4eb5-8aee-37ee3547353e
     RDKit          3D

 16 17  0  0  0  0  0  0  0  0999 V2000
   -1.0874   33.4595    3.6605 C   0  0  0  0  0  0  0  0  0  0  0  0
   -1.0755   32.5723    2.6640 C   0  0  0  0  0  0  0  0  0  0  0  0
   -0.5282   32.9731    1.4701 O   0  0  0  0  0  0  0  0  0  0  0  0
   -1.5741   31.2969    2.6436 N   0  0  0  0  0  0  0  0  0  0  0  0
   -1.9181   30.4781    3.7405 C   0  0  0  0  0  0  0  0  0  0  0  0
   -1.1792   30.4633    4.9251 C   0  0  0  0  0  0  0  0  0  0  0  0
   -1.5571   29.6418    5.9855 C   0  0  0  0  0  0  0  0  0  0  0  0
   -2.6684   28.8036    5.8654 C   0  0  0  0  0  0  0  0  0  0  0  0
   -3.3989   28.7408    4.6767 C   0  0  0  0  0  0  0  0  0  0  0  0
   -4.5519   27.9713    4.5072 N   0  0  0  0  0  0  0  0  0  0  0  0
   -4.8578   26.8108    5.3448 C   0  0  1  0  0  0  0  0  0  0  0  0
   -6.3586   26.5364    5.2272 C   0  0  0  0  0  0  0  0  0  0  0  0
   -3.9681   25.6614    4.9314 C   0  0  0  0  0  0  0  0  0  0  0  0
   -4.1145   24.9685    3.5956 C   0  0  0  0  0  0  0  0  0  0  0  0
   -4.4158   24.2189    4.8646 C   0  0  0  0  0  0  0  0  0  0  0  0
   -3.0203   29.6108    3.6375 C   0  0  0  0  0  0  0  0  0  0  0  0
  1  2  2  3
  2  3  1  0
  2  4  1  0
  4  5  1  0
  5  6  2  0
  6  7  1  0
  7  8  2  0
  8  9  1  0
  9 10  1  0
 10 11  1  0
 11 12  1  6
 11 13  1  0
 13 14  1  0
 14 15  1  0
  9 16  2  0
 16  5  1  0
 15 13  1  0
M  END
>  <Energy>  (1329) 
-10.062691608650464

>  <Energy_Delta>  (1329) 
7.5582569724812814

>  <std_smi>  (1329) 
CC(=O)Nc1cccc(NC(C)C2CC2)c1

>  <enum_smi>  (1329) 
C=C(O)Nc1cccc(NC(C)C2CC2)c1

>  <enum_code>  (1329) 
T

>  <parent_uuid>  (1329) 
80177037-97d9-4251-9583-a2fb747585df

>  <o3da_score>  (1329) 
79.066833731856406

>  <o3da_score_rel>  (1329) 
0.31477655317160491

>  <o3da_align>  (1329) 
0.46550785842728754

>  <RMSD>  (1329) 
6.7731021517046749e-05

>  <CONVERGED>  (1329) 
0

>  <ENERGY>  (1329) 
-10.06269160872195

$$$$
37729e11-6fb0-4eb5-8aee-37ee3547353e
     RDKit          3D

 16 17  0  0  0  0  0  0  0  0999 V2000
   -5.6899   21.4331    5.3921 C   0  0  0  0  0  0  0  0  0  0  0  0
   -6.0912   22.0320    4.2695 C   0  0  0  0  0  0  0  0  0  0  0  0
   -6.8617   21.2958    3.4034 O   0  0  0  0  0  0  0  0  0  0  0  0
   -5.8723   23.3196    3.8573 N   0  0  0  0  0  0  0  0  0  0  0  0
   -4.9050   24.2328    4.3292 C   0  0  0  0  0  0  0  0  0  0  0  0
   -3.6150   23.8381    4.6893 C   0  0  0  0  0  0  0  0  0  0  0  0
   -2.6919   24.7730    5.1541 C   0  0  0  0  0  0  0  0  0  0  0  0
   -3.0407   26.1231    5.2418 C   0  0  0  0  0  0  0  0  0  0  0  0
   -4.2995   26.5704    4.8343 C   0  0  0  0  0  0  0  0  0  0  0  0
   -4.7330   27.8915    4.9473 N   0  0  0  0  0  0  0  0  0  0  0  0
   -3.8135   29.0181    5.0934 C   0  0  1  0  0  0  0  0  0  0  0  0
   -3.1269   29.3193    3.7598 C   0  0  0  0  0  0  0  0  0  0  0  0
   -4.5395   30.2560    5.5833 C   0  0  0  0  0  0  0  0  0  0  0  0
   -5.7717   30.1829    6.4557 C   0  0  0  0  0  0  0  0  0  0  0  0
   -5.8808   30.7036    5.0472 C   0  0  0  0  0  0  0  0  0  0  0  0
   -5.2245   25.6000    4.4074 C   0  0  0  0  0  0  0  0  0  0  0  0
  1  2  2  3
  2  3  1  0
  2  4  1  0
  4  5  1  0
  5  6  2  0
  6  7  1  0
  7  8  2  0
  8  9  1  0
  9 10  1  0
 10 11  1  0
 11 12  1  6
 11 13  1  0
 13 14  1  0
 14 15  1  0
  9 16  2  0
 16  5  1  0
 15 13  1  0
M  END
>  <Energy>  (1330) 
-10.054276972929641

>  <Energy_Delta>  (1330) 
7.566671608202105

>  <std_smi>  (1330) 
CC(=O)Nc1cccc(NC(C)C2CC2)c1

>  <enum_smi>  (1330) 
C=C(O)Nc1cccc(NC(C)C2CC2)c1

>  <enum_code>  (1330) 
T

>  <parent_uuid>  (1330) 
80177037-97d9-4251-9583-a2fb747585df

>  <o3da_score>  (1330) 
77.635675056831246

>  <o3da_score_rel>  (1330) 
0.30907890254487247

>  <o3da_align>  (1330) 
0.29464248003143823

>  <RMSD>  (1330) 
0.25105971073600303

>  <CONVERGED>  (1330) 
0

>  <ENERGY>  (1330) 
-11.081302620928858

$$$$
37729e11-6fb0-4eb5-8aee-37ee3547353e
     RDKit          3D

 16 17  0  0  0  0  0  0  0  0999 V2000
   -3.9432   23.3539    4.5707 C   0  0  0  0  0  0  0  0  0  0  0  0
   -5.0134   24.1128    4.3280 C   0  0  0  0  0  0  0  0  0  0  0  0
   -6.2025   23.4680    4.0913 O   0  0  0  0  0  0  0  0  0  0  0  0
   -5.0974   25.4771    4.2425 N   0  0  0  0  0  0  0  0  0  0  0  0
   -4.1759   26.4377    4.7119 C   0  0  0  0  0  0  0  0  0  0  0  0
   -3.4759   26.2816    5.9098 C   0  0  0  0  0  0  0  0  0  0  0  0
   -2.5721   27.2539    6.3341 C   0  0  0  0  0  0  0  0  0  0  0  0
   -2.3744   28.4102    5.5753 C   0  0  0  0  0  0  0  0  0  0  0  0
   -3.0985   28.6355    4.4025 C   0  0  0  0  0  0  0  0  0  0  0  0
   -2.9111   29.7379    3.5685 N   0  0  0  0  0  0  0  0  0  0  0  0
   -2.2700   30.9722    4.0178 C   0  0  2  0  0  0  0  0  0  0  0  0
   -3.2199   31.7672    4.9157 C   0  0  0  0  0  0  0  0  0  0  0  0
   -1.8471   31.8282    2.8397 C   0  0  0  0  0  0  0  0  0  0  0  0
   -1.4684   31.2374    1.5010 C   0  0  0  0  0  0  0  0  0  0  0  0
   -2.7181   32.0678    1.6270 C   0  0  0  0  0  0  0  0  0  0  0  0
   -3.9741   27.6196    3.9770 C   0  0  0  0  0  0  0  0  0  0  0  0
  1  2  2  3
  2  3  1  0
  2  4  1  0
  4  5  1  0
  5  6  2  0
  6  7  1  0
  7  8  2  0
  8  9  1  0
  9 10  1  0
 10 11  1  0
 11 12  1  1
 11 13  1  0
 13 14  1  0
 14 15  1  0
  9 16  2  0
 16  5  1  0
 15 13  1  0
M  END
>  <Energy>  (1331) 
-10.05427697249406

>  <Energy_Delta>  (1331) 
7.5666716086376855

>  <std_smi>  (1331) 
CC(=O)Nc1cccc(NC(C)C2CC2)c1

>  <enum_smi>  (1331) 
C=C(O)Nc1cccc(NC(C)C2CC2)c1

>  <enum_code>  (1331) 
T

>  <parent_uuid>  (1331) 
80177037-97d9-4251-9583-a2fb747585df

>  <o3da_score>  (1331) 
80.026849975995546

>  <o3da_score_rel>  (1331) 
0.31859851732592659

>  <o3da_align>  (1331) 
0.53665335059362707

>  <RMSD>  (1331) 
0.25104155492336733

>  <CONVERGED>  (1331) 
0

>  <ENERGY>  (1331) 
-11.081302620910302

$$$$
37729e11-6fb0-4eb5-8aee-37ee3547353e
     RDKit          3D

 16 17  0  0  0  0  0  0  0  0999 V2000
   -0.9526   30.8426    0.5457 C   0  0  0  0  0  0  0  0  0  0  0  0
   -1.2269   30.2394    1.7035 C   0  0  0  0  0  0  0  0  0  0  0  0
   -0.6013   30.7016    2.8343 O   0  0  0  0  0  0  0  0  0  0  0  0
   -2.0114   29.1238    1.8354 N   0  0  0  0  0  0  0  0  0  0  0  0
   -2.9576   28.8466    2.8505 C   0  0  0  0  0  0  0  0  0  0  0  0
   -3.3527   29.7773    3.8129 C   0  0  0  0  0  0  0  0  0  0  0  0
   -4.2790   29.4277    4.7943 C   0  0  0  0  0  0  0  0  0  0  0  0
   -4.8042   28.1336    4.8404 C   0  0  0  0  0  0  0  0  0  0  0  0
   -4.3943   27.1565    3.9309 C   0  0  0  0  0  0  0  0  0  0  0  0
   -4.9184   25.8649    3.8817 N   0  0  0  0  0  0  0  0  0  0  0  0
   -5.6162   25.2497    5.0093 C   0  0  2  0  0  0  0  0  0  0  0  0
   -4.6172   24.8451    6.0951 C   0  0  0  0  0  0  0  0  0  0  0  0
   -6.4058   24.0337    4.5653 C   0  0  0  0  0  0  0  0  0  0  0  0
   -6.9804   23.9022    3.1735 C   0  0  0  0  0  0  0  0  0  0  0  0
   -5.8658   22.9904    3.6131 C   0  0  0  0  0  0  0  0  0  0  0  0
   -3.4917   27.5476    2.9260 C   0  0  0  0  0  0  0  0  0  0  0  0
  1  2  2  3
  2  3  1  0
  2  4  1  0
  4  5  1  0
  5  6  2  0
  6  7  1  0
  7  8  2  0
  8  9  1  0
  9 10  1  0
 10 11  1  0
 11 12  1  1
 11 13  1  0
 13 14  1  0
 14 15  1  0
  9 16  2  0
 16  5  1  0
 15 13  1  0
M  END
>  <Energy>  (1332) 
-10.052917927920687

>  <Energy_Delta>  (1332) 
7.5680306532110588

>  <std_smi>  (1332) 
CC(=O)Nc1cccc(NC(C)C2CC2)c1

>  <enum_smi>  (1332) 
C=C(O)Nc1cccc(NC(C)C2CC2)c1

>  <enum_code>  (1332) 
T

>  <parent_uuid>  (1332) 
80177037-97d9-4251-9583-a2fb747585df

>  <o3da_score>  (1332) 
79.164187642631873

>  <o3da_score_rel>  (1332) 
0.31516413323552406

>  <o3da_align>  (1332) 
0.51200285043399751

>  <RMSD>  (1332) 
0.3711736547126554

>  <CONVERGED>  (1332) 
0

>  <ENERGY>  (1332) 
-16.27726228566241

$$$$
37729e11-6fb0-4eb5-8aee-37ee3547353e
     RDKit          3D

 16 17  0  0  0  0  0  0  0  0999 V2000
    0.2498   32.3450   -0.8979 C   0  0  0  0  0  0  0  0  0  0  0  0
   -0.0522   32.0348    0.3639 C   0  0  0  0  0  0  0  0  0  0  0  0
    0.1639   32.9858    1.3296 O   0  0  0  0  0  0  0  0  0  0  0  0
   -0.4660   30.7988    0.7851 N   0  0  0  0  0  0  0  0  0  0  0  0
   -1.4526   30.4953    1.7524 C   0  0  0  0  0  0  0  0  0  0  0  0
   -2.2828   31.4544    2.3355 C   0  0  0  0  0  0  0  0  0  0  0  0
   -3.1896   31.0934    3.3308 C   0  0  0  0  0  0  0  0  0  0  0  0
   -3.2795   29.7651    3.7549 C   0  0  0  0  0  0  0  0  0  0  0  0
   -2.4896   28.7686    3.1778 C   0  0  0  0  0  0  0  0  0  0  0  0
   -2.4786   27.4414    3.6017 N   0  0  0  0  0  0  0  0  0  0  0  0
   -3.5684   26.8372    4.3665 C   0  0  1  0  0  0  0  0  0  0  0  0
   -4.7829   26.6092    3.4671 C   0  0  0  0  0  0  0  0  0  0  0  0
   -2.9972   25.5860    4.9970 C   0  0  0  0  0  0  0  0  0  0  0  0
   -2.7474   24.3166    4.2152 C   0  0  0  0  0  0  0  0  0  0  0  0
   -3.8006   24.3403    5.2903 C   0  0  0  0  0  0  0  0  0  0  0  0
   -1.5577   29.1669    2.2030 C   0  0  0  0  0  0  0  0  0  0  0  0
  1  2  2  3
  2  3  1  0
  2  4  1  0
  4  5  1  0
  5  6  2  0
  6  7  1  0
  7  8  2  0
  8  9  1  0
  9 10  1  0
 10 11  1  0
 11 12  1  6
 11 13  1  0
 13 14  1  0
 14 15  1  0
  9 16  2  0
 16  5  1  0
 15 13  1  0
M  END
>  <Energy>  (1333) 
-9.5373902010685594

>  <Energy_Delta>  (1333) 
8.0835583800631863

>  <std_smi>  (1333) 
CC(=O)Nc1cccc(NC(C)C2CC2)c1

>  <enum_smi>  (1333) 
C=C(O)Nc1cccc(NC(C)C2CC2)c1

>  <enum_code>  (1333) 
T

>  <parent_uuid>  (1333) 
80177037-97d9-4251-9583-a2fb747585df

>  <o3da_score>  (1333) 
84.074684372277119

>  <o3da_score_rel>  (1333) 
0.33471353419117905

>  <o3da_align>  (1333) 
0.5519732421419995

>  <RMSD>  (1333) 
0.33593472395874902

>  <CONVERGED>  (1333) 
0

>  <ENERGY>  (1333) 
-15.37282914885528

$$$$
37729e11-6fb0-4eb5-8aee-37ee3547353e
     RDKit          3D

 16 17  0  0  0  0  0  0  0  0999 V2000
   -0.1385   32.1850   -1.0404 C   0  0  0  0  0  0  0  0  0  0  0  0
   -0.2008   31.8845    0.2579 C   0  0  0  0  0  0  0  0  0  0  0  0
    0.2743   32.8078    1.1554 O   0  0  0  0  0  0  0  0  0  0  0  0
   -0.6093   30.6773    0.7599 N   0  0  0  0  0  0  0  0  0  0  0  0
   -1.3999   30.4360    1.9079 C   0  0  0  0  0  0  0  0  0  0  0  0
   -2.0241   31.4463    2.6417 C   0  0  0  0  0  0  0  0  0  0  0  0
   -2.7348   31.1415    3.8015 C   0  0  0  0  0  0  0  0  0  0  0  0
   -2.8334   29.8191    4.2418 C   0  0  0  0  0  0  0  0  0  0  0  0
   -2.2515   28.7739    3.5213 C   0  0  0  0  0  0  0  0  0  0  0  0
   -2.2481   27.4423    3.9407 N   0  0  0  0  0  0  0  0  0  0  0  0
   -3.2311   26.9085    4.8845 C   0  0  2  0  0  0  0  0  0  0  0  0
   -2.6518   25.6241    5.4811 C   0  0  0  0  0  0  0  0  0  0  0  0
   -4.5517   26.7373    4.1701 C   0  0  0  0  0  0  0  0  0  0  0  0
   -5.4943   25.5757    4.3892 C   0  0  0  0  0  0  0  0  0  0  0  0
   -4.7537   25.7029    3.0861 C   0  0  0  0  0  0  0  0  0  0  0  0
   -1.5077   29.1143    2.3771 C   0  0  0  0  0  0  0  0  0  0  0  0
  1  2  2  3
  2  3  1  0
  2  4  1  0
  4  5  1  0
  5  6  2  0
  6  7  1  0
  7  8  2  0
  8  9  1  0
  9 10  1  0
 10 11  1  0
 11 12  1  6
 11 13  1  0
 13 14  1  0
 14 15  1  0
  9 16  2  0
 16  5  1  0
 15 13  1  0
M  END
>  <Energy>  (1334) 
-8.4329007845980684

>  <Energy_Delta>  (1334) 
9.1880477965336773

>  <std_smi>  (1334) 
CC(=O)Nc1cccc(NC(C)C2CC2)c1

>  <enum_smi>  (1334) 
C=C(O)Nc1cccc(NC(C)C2CC2)c1

>  <enum_code>  (1334) 
T

>  <parent_uuid>  (1334) 
80177037-97d9-4251-9583-a2fb747585df

>  <o3da_score>  (1334) 
87.813787564539012

>  <o3da_score_rel>  (1334) 
0.34959944727585757

>  <o3da_align>  (1334) 
0.55468422766686565

>  <RMSD>  (1334) 
0.46080237668813295

>  <CONVERGED>  (1334) 
0

>  <ENERGY>  (1334) 
-15.185414242622475

$$$$
37729e11-6fb0-4eb5-8aee-37ee3547353e
     RDKit          3D

 16 17  0  0  0  0  0  0  0  0999 V2000
   -6.4574   21.1825    2.9149 C   0  0  0  0  0  0  0  0  0  0  0  0
   -5.9450   21.9710    3.8612 C   0  0  0  0  0  0  0  0  0  0  0  0
   -5.4619   21.3779    5.0007 O   0  0  0  0  0  0  0  0  0  0  0  0
   -5.9582   23.3403    3.8263 N   0  0  0  0  0  0  0  0  0  0  0  0
   -4.9379   24.2297    4.2370 C   0  0  0  0  0  0  0  0  0  0  0  0
   -3.6602   23.8171    4.6145 C   0  0  0  0  0  0  0  0  0  0  0  0
   -2.7265   24.7464    5.0674 C   0  0  0  0  0  0  0  0  0  0  0  0
   -3.0593   26.1023    5.1485 C   0  0  0  0  0  0  0  0  0  0  0  0
   -4.3144   26.5666    4.7597 C   0  0  0  0  0  0  0  0  0  0  0  0
   -4.7463   27.8792    4.8698 N   0  0  0  0  0  0  0  0  0  0  0  0
   -3.9503   29.0800    5.1189 C   0  0  2  0  0  0  0  0  0  0  0  0
   -2.8651   29.2995    4.0715 C   0  0  0  0  0  0  0  0  0  0  0  0
   -3.4297   29.1281    6.5321 C   0  0  0  0  0  0  0  0  0  0  0  0
   -3.5755   30.3828    7.3625 C   0  0  0  0  0  0  0  0  0  0  0  0
   -4.3880   29.1653    7.6988 C   0  0  0  0  0  0  0  0  0  0  0  0
   -5.2465   25.5991    4.3365 C   0  0  0  0  0  0  0  0  0  0  0  0
  1  2  2  3
  2  3  1  0
  2  4  1  0
  4  5  1  0
  5  6  2  0
  6  7  1  0
  7  8  2  0
  8  9  1  0
  9 10  1  0
 10 11  1  0
 11 12  1  6
 11 13  1  0
 13 14  1  0
 14 15  1  0
  9 16  2  0
 16  5  1  0
 15 13  1  0
M  END
>  <Energy>  (1335) 
-7.8256046403122435

>  <Energy_Delta>  (1335) 
9.7953439408195031

>  <std_smi>  (1335) 
CC(=O)Nc1cccc(NC(C)C2CC2)c1

>  <enum_smi>  (1335) 
C=C(O)Nc1cccc(NC(C)C2CC2)c1

>  <enum_code>  (1335) 
T

>  <parent_uuid>  (1335) 
80177037-97d9-4251-9583-a2fb747585df

>  <o3da_score>  (1335) 
77.09169695633318

>  <o3da_score_rel>  (1335) 
0.30691324668901354

>  <o3da_align>  (1335) 
0.33943667748037776

>  <RMSD>  (1335) 
0.29346156069289475

>  <CONVERGED>  (1335) 
0

>  <ENERGY>  (1335) 
-12.234787714743621

$$$$
37729e11-6fb0-4eb5-8aee-37ee3547353e
     RDKit          3D

 16 17  0  0  0  0  0  0  0  0999 V2000
   -6.8393   21.1505    3.8571 C   0  0  0  0  0  0  0  0  0  0  0  0
   -5.8837   22.0390    3.5791 C   0  0  0  0  0  0  0  0  0  0  0  0
   -4.7801   21.6023    2.8899 O   0  0  0  0  0  0  0  0  0  0  0  0
   -5.9675   23.3811    3.8397 N   0  0  0  0  0  0  0  0  0  0  0  0
   -4.9453   24.2413    4.3044 C   0  0  0  0  0  0  0  0  0  0  0  0
   -3.6910   23.7955    4.7201 C   0  0  0  0  0  0  0  0  0  0  0  0
   -2.7129   24.7090    5.1067 C   0  0  0  0  0  0  0  0  0  0  0  0
   -2.9769   26.0823    5.0821 C   0  0  0  0  0  0  0  0  0  0  0  0
   -4.2225   26.5753    4.6985 C   0  0  0  0  0  0  0  0  0  0  0  0
   -4.5486   27.9191    4.5775 N   0  0  0  0  0  0  0  0  0  0  0  0
   -3.8126   29.0782    5.0804 C   0  0  2  0  0  0  0  0  0  0  0  0
   -2.5233   29.3432    4.3126 C   0  0  0  0  0  0  0  0  0  0  0  0
   -3.6192   29.0173    6.5717 C   0  0  0  0  0  0  0  0  0  0  0  0
   -4.7947   29.1905    7.5037 C   0  0  0  0  0  0  0  0  0  0  0  0
   -3.7459   30.2633    7.4158 C   0  0  0  0  0  0  0  0  0  0  0  0
   -5.1796   25.6287    4.2828 C   0  0  0  0  0  0  0  0  0  0  0  0
  1  2  2  3
  2  3  1  0
  2  4  1  0
  4  5  1  0
  5  6  2  0
  6  7  1  0
  7  8  2  0
  8  9  1  0
  9 10  1  0
 10 11  1  0
 11 12  1  6
 11 13  1  0
 13 14  1  0
 14 15  1  0
  9 16  2  0
 16  5  1  0
 15 13  1  0
M  END
>  <Energy>  (1336) 
-7.7132006138376603

>  <Energy_Delta>  (1336) 
9.9077479672940854

>  <std_smi>  (1336) 
CC(=O)Nc1cccc(NC(C)C2CC2)c1

>  <enum_smi>  (1336) 
C=C(O)Nc1cccc(NC(C)C2CC2)c1

>  <enum_code>  (1336) 
T

>  <parent_uuid>  (1336) 
80177037-97d9-4251-9583-a2fb747585df

>  <o3da_score>  (1336) 
77.196567108502137

>  <o3da_score_rel>  (1336) 
0.30733075000199911

>  <o3da_align>  (1336) 
0.33482327092771114

>  <RMSD>  (1336) 
0.24300513632280854

>  <CONVERGED>  (1336) 
0

>  <ENERGY>  (1336) 
-12.758673238168944

$$$$
37729e11-6fb0-4eb5-8aee-37ee3547353e
     RDKit          3D

 16 17  0  0  0  0  0  0  0  0999 V2000
   -5.7148   21.5737    5.4784 C   0  0  0  0  0  0  0  0  0  0  0  0
   -6.1521   22.1311    4.3479 C   0  0  0  0  0  0  0  0  0  0  0  0
   -7.0035   21.3882    3.5676 O   0  0  0  0  0  0  0  0  0  0  0  0
   -5.8982   23.3825    3.8540 N   0  0  0  0  0  0  0  0  0  0  0  0
   -4.8709   24.2760    4.2230 C   0  0  0  0  0  0  0  0  0  0  0  0
   -3.5814   23.8467    4.5360 C   0  0  0  0  0  0  0  0  0  0  0  0
   -2.5909   24.7700    4.8621 C   0  0  0  0  0  0  0  0  0  0  0  0
   -2.8796   26.1382    4.8838 C   0  0  0  0  0  0  0  0  0  0  0  0
   -4.1590   26.6145    4.6036 C   0  0  0  0  0  0  0  0  0  0  0  0
   -4.5178   27.9546    4.5361 N   0  0  0  0  0  0  0  0  0  0  0  0
   -3.7630   29.1164    5.0042 C   0  0  2  0  0  0  0  0  0  0  0  0
   -2.5422   29.4192    4.1440 C   0  0  0  0  0  0  0  0  0  0  0  0
   -3.4532   29.0309    6.4746 C   0  0  0  0  0  0  0  0  0  0  0  0
   -3.5359   30.2579    7.3514 C   0  0  0  0  0  0  0  0  0  0  0  0
   -4.5557   29.1638    7.4980 C   0  0  0  0  0  0  0  0  0  0  0  0
   -5.1293   25.6586    4.2414 C   0  0  0  0  0  0  0  0  0  0  0  0
  1  2  2  3
  2  3  1  0
  2  4  1  0
  4  5  1  0
  5  6  2  0
  6  7  1  0
  7  8  2  0
  8  9  1  0
  9 10  1  0
 10 11  1  0
 11 12  1  6
 11 13  1  0
 13 14  1  0
 14 15  1  0
  9 16  2  0
 16  5  1  0
 15 13  1  0
M  END
>  <Energy>  (1337) 
-7.0915820834258447

>  <Energy_Delta>  (1337) 
10.529366497705901

>  <std_smi>  (1337) 
CC(=O)Nc1cccc(NC(C)C2CC2)c1

>  <enum_smi>  (1337) 
C=C(O)Nc1cccc(NC(C)C2CC2)c1

>  <enum_code>  (1337) 
T

>  <parent_uuid>  (1337) 
80177037-97d9-4251-9583-a2fb747585df

>  <o3da_score>  (1337) 
78.991249532122566

>  <o3da_score_rel>  (1337) 
0.31447564149039176

>  <o3da_align>  (1337) 
0.23514732342561187

>  <RMSD>  (1337) 
0.18743055682083518

>  <CONVERGED>  (1337) 
0

>  <ENERGY>  (1337) 
-7.7401578199654679

$$$$
37729e11-6fb0-4eb5-8aee-37ee3547353e
     RDKit          3D

 16 17  0  0  0  0  0  0  0  0999 V2000
   -4.7220   21.7457    2.5244 C   0  0  0  0  0  0  0  0  0  0  0  0
   -5.7720   22.1213    3.2569 C   0  0  0  0  0  0  0  0  0  0  0  0
   -6.8620   21.2862    3.2699 O   0  0  0  0  0  0  0  0  0  0  0  0
   -5.9416   23.2649    3.9902 N   0  0  0  0  0  0  0  0  0  0  0  0
   -4.9582   24.1753    4.4305 C   0  0  0  0  0  0  0  0  0  0  0  0
   -3.6982   23.7635    4.8669 C   0  0  0  0  0  0  0  0  0  0  0  0
   -2.7704   24.6957    5.3261 C   0  0  0  0  0  0  0  0  0  0  0  0
   -3.0900   26.0561    5.3478 C   0  0  0  0  0  0  0  0  0  0  0  0
   -4.3252   26.5180    4.8938 C   0  0  0  0  0  0  0  0  0  0  0  0
   -4.7408   27.8454    4.9474 N   0  0  0  0  0  0  0  0  0  0  0  0
   -3.8735   29.0160    5.1122 C   0  0  2  0  0  0  0  0  0  0  0  0
   -2.8736   29.1414    3.9669 C   0  0  0  0  0  0  0  0  0  0  0  0
   -3.3086   29.0893    6.5101 C   0  0  0  0  0  0  0  0  0  0  0  0
   -1.8335   29.1948    6.8372 C   0  0  0  0  0  0  0  0  0  0  0  0
   -2.7210   30.3909    7.0115 C   0  0  0  0  0  0  0  0  0  0  0  0
   -5.2570   25.5491    4.4744 C   0  0  0  0  0  0  0  0  0  0  0  0
  1  2  2  3
  2  3  1  0
  2  4  1  0
  4  5  1  0
  5  6  2  0
  6  7  1  0
  7  8  2  0
  8  9  1  0
  9 10  1  0
 10 11  1  0
 11 12  1  6
 11 13  1  0
 13 14  1  0
 14 15  1  0
  9 16  2  0
 16  5  1  0
 15 13  1  0
M  END
>  <Energy>  (1338) 
-6.7862987590817827

>  <Energy_Delta>  (1338) 
10.834649822049963

>  <std_smi>  (1338) 
CC(=O)Nc1cccc(NC(C)C2CC2)c1

>  <enum_smi>  (1338) 
C=C(O)Nc1cccc(NC(C)C2CC2)c1

>  <enum_code>  (1338) 
T

>  <parent_uuid>  (1338) 
80177037-97d9-4251-9583-a2fb747585df

>  <o3da_score>  (1338) 
77.983764468619057

>  <o3da_score_rel>  (1338) 
0.31046469706915669

>  <o3da_align>  (1338) 
0.28889788861303123

>  <RMSD>  (1338) 
0.32977748475469904

>  <CONVERGED>  (1338) 
0

>  <ENERGY>  (1338) 
-6.0337477656238354

$$$$
37729e11-6fb0-4eb5-8aee-37ee3547353e
     RDKit          3D

 16 17  0  0  0  0  0  0  0  0999 V2000
   -6.7372   21.0889    4.0067 C   0  0  0  0  0  0  0  0  0  0  0  0
   -5.8310   21.9966    3.6396 C   0  0  0  0  0  0  0  0  0  0  0  0
   -4.7633   21.5724    2.8888 O   0  0  0  0  0  0  0  0  0  0  0  0
   -5.9392   23.3427    3.8685 N   0  0  0  0  0  0  0  0  0  0  0  0
   -4.9153   24.2467    4.2367 C   0  0  0  0  0  0  0  0  0  0  0  0
   -3.6216   23.8503    4.5774 C   0  0  0  0  0  0  0  0  0  0  0  0
   -2.6463   24.8024    4.8672 C   0  0  0  0  0  0  0  0  0  0  0  0
   -2.9540   26.1650    4.8215 C   0  0  0  0  0  0  0  0  0  0  0  0
   -4.2401   26.6080    4.5144 C   0  0  0  0  0  0  0  0  0  0  0  0
   -4.6040   27.9440    4.3803 N   0  0  0  0  0  0  0  0  0  0  0  0
   -3.8616   29.0996    4.8921 C   0  0  1  0  0  0  0  0  0  0  0  0
   -3.7324   29.0568    6.4115 C   0  0  0  0  0  0  0  0  0  0  0  0
   -2.5873   29.3225    4.1144 C   0  0  0  0  0  0  0  0  0  0  0  0
   -1.8765   30.6553    4.2101 C   0  0  0  0  0  0  0  0  0  0  0  0
   -1.2079   29.4187    4.7324 C   0  0  0  0  0  0  0  0  0  0  0  0
   -5.1945   25.6251    4.1913 C   0  0  0  0  0  0  0  0  0  0  0  0
  1  2  2  3
  2  3  1  0
  2  4  1  0
  4  5  1  0
  5  6  2  0
  6  7  1  0
  7  8  2  0
  8  9  1  0
  9 10  1  0
 10 11  1  0
 11 12  1  1
 11 13  1  0
 13 14  1  0
 14 15  1  0
  9 16  2  0
 16  5  1  0
 15 13  1  0
M  END
>  <Energy>  (1339) 
-5.6613967461203067

>  <Energy_Delta>  (1339) 
11.959551835011439

>  <std_smi>  (1339) 
CC(=O)Nc1cccc(NC(C)C2CC2)c1

>  <enum_smi>  (1339) 
C=C(O)Nc1cccc(NC(C)C2CC2)c1

>  <enum_code>  (1339) 
T

>  <parent_uuid>  (1339) 
80177037-97d9-4251-9583-a2fb747585df

>  <o3da_score>  (1339) 
84.589302485693935

>  <o3da_score_rel>  (1339) 
0.33676230367258242

>  <o3da_align>  (1339) 
0.27321177808554253

>  <RMSD>  (1339) 
0.30958975830655416

>  <CONVERGED>  (1339) 
0

>  <ENERGY>  (1339) 
-11.045961316129102

$$$$
f78f5899-7f06-4656-9911-0de2591275d6
     RDKit          3D

 16 17  0  0  0  0  0  0  0  0999 V2000
   -0.6245   24.0730    3.3293 C   0  0  0  0  0  0  0  0  0  0  0  0
   -0.6121   23.8462    4.8058 C   0  0  0  0  0  0  0  0  0  0  0  0
    0.5442   23.3520    5.2702 O   0  0  0  0  0  0  0  0  0  0  0  0
   -1.5412   24.0604    5.6744 N   0  0  0  0  0  0  0  0  0  0  0  0
   -2.7625   24.5811    5.2231 C   0  0  0  0  0  0  0  0  0  0  0  0
   -3.8100   23.7212    4.8969 C   0  0  0  0  0  0  0  0  0  0  0  0
   -5.0177   24.2392    4.4406 C   0  0  0  0  0  0  0  0  0  0  0  0
   -5.1845   25.6225    4.3360 C   0  0  0  0  0  0  0  0  0  0  0  0
   -4.1705   26.5156    4.7150 C   0  0  0  0  0  0  0  0  0  0  0  0
   -4.3905   27.8807    4.5319 N   0  0  0  0  0  0  0  0  0  0  0  0
   -3.5595   28.9027    5.1633 C   0  0  2  0  0  0  0  0  0  0  0  0
   -3.8569   28.9974    6.6593 C   0  0  0  0  0  0  0  0  0  0  0  0
   -3.8805   30.2170    4.4893 C   0  0  0  0  0  0  0  0  0  0  0  0
   -2.8215   31.2813    4.3333 C   0  0  0  0  0  0  0  0  0  0  0  0
   -3.3117   30.5303    3.1268 C   0  0  0  0  0  0  0  0  0  0  0  0
   -2.9524   25.9674    5.1338 C   0  0  0  0  0  0  0  0  0  0  0  0
  1  2  1  0
  2  3  1  0
  2  4  2  3
  4  5  1  0
  5  6  2  0
  6  7  1  0
  7  8  2  0
  8  9  1  0
  9 10  1  0
 10 11  1  0
 11 12  1  1
 11 13  1  0
 13 14  1  0
 14 15  1  0
  9 16  2  0
 16  5  1  0
 15 13  1  0
M  END
>  <Energy>  (1340) 
-2.0402007981164472

>  <Energy_Delta>  (1340) 
0

>  <std_smi>  (1340) 
CC(=O)Nc1cccc(NC(C)C2CC2)c1

>  <enum_smi>  (1340) 
CC(O)=Nc1cccc(NC(C)C2CC2)c1

>  <enum_code>  (1340) 
T

>  <parent_uuid>  (1340) 
80177037-97d9-4251-9583-a2fb747585df

>  <o3da_score>  (1340) 
80.263977465112632

>  <o3da_score_rel>  (1340) 
0.31954255631374862

>  <o3da_align>  (1340) 
0.48039440919402704

>  <RMSD>  (1340) 
6.5957973127538422e-05

>  <CONVERGED>  (1340) 
0

>  <ENERGY>  (1340) 
-2.0402008003032481

$$$$
f78f5899-7f06-4656-9911-0de2591275d6
     RDKit          3D

 16 17  0  0  0  0  0  0  0  0999 V2000
   -7.1906   23.4911    5.9365 C   0  0  0  0  0  0  0  0  0  0  0  0
   -6.9084   23.0171    4.5484 C   0  0  0  0  0  0  0  0  0  0  0  0
   -7.8282   22.1699    4.0656 O   0  0  0  0  0  0  0  0  0  0  0  0
   -5.9228   23.3083    3.7695 N   0  0  0  0  0  0  0  0  0  0  0  0
   -4.9439   24.1941    4.2409 C   0  0  0  0  0  0  0  0  0  0  0  0
   -3.8030   23.7059    4.8737 C   0  0  0  0  0  0  0  0  0  0  0  0
   -2.8189   24.5882    5.3103 C   0  0  0  0  0  0  0  0  0  0  0  0
   -2.9742   25.9649    5.1148 C   0  0  0  0  0  0  0  0  0  0  0  0
   -4.1167   26.4876    4.4990 C   0  0  0  0  0  0  0  0  0  0  0  0
   -4.2954   27.8395    4.2120 N   0  0  0  0  0  0  0  0  0  0  0  0
   -3.5561   28.8997    4.8902 C   0  0  2  0  0  0  0  0  0  0  0  0
   -4.0623   29.0842    6.3204 C   0  0  0  0  0  0  0  0  0  0  0  0
   -3.7695   30.1700    4.0996 C   0  0  0  0  0  0  0  0  0  0  0  0
   -2.6906   31.2233    4.0278 C   0  0  0  0  0  0  0  0  0  0  0  0
   -3.0141   30.3988    2.8131 C   0  0  0  0  0  0  0  0  0  0  0  0
   -5.0749   25.5728    4.0332 C   0  0  0  0  0  0  0  0  0  0  0  0
  1  2  1  0
  2  3  1  0
  2  4  2  3
  4  5  1  0
  5  6  2  0
  6  7  1  0
  7  8  2  0
  8  9  1  0
  9 10  1  0
 10 11  1  0
 11 12  1  1
 11 13  1  0
 13 14  1  0
 14 15  1  0
  9 16  2  0
 16  5  1  0
 15 13  1  0
M  END
>  <Energy>  (1341) 
-1.750704976111781

>  <Energy_Delta>  (1341) 
0.28949582200466617

>  <std_smi>  (1341) 
CC(=O)Nc1cccc(NC(C)C2CC2)c1

>  <enum_smi>  (1341) 
CC(O)=Nc1cccc(NC(C)C2CC2)c1

>  <enum_code>  (1341) 
T

>  <parent_uuid>  (1341) 
80177037-97d9-4251-9583-a2fb747585df

>  <o3da_score>  (1341) 
82.849616739557888

>  <o3da_score_rel>  (1341) 
0.32983636194804561

>  <o3da_align>  (1341) 
0.38582628837189542

>  <RMSD>  (1341) 
0.31790086191430794

>  <CONVERGED>  (1341) 
0

>  <ENERGY>  (1341) 
-1.5611146608221897

$$$$
f78f5899-7f06-4656-9911-0de2591275d6
     RDKit          3D

 16 17  0  0  0  0  0  0  0  0999 V2000
   -7.1550   23.4035    5.8340 C   0  0  0  0  0  0  0  0  0  0  0  0
   -6.8722   23.0039    4.4228 C   0  0  0  0  0  0  0  0  0  0  0  0
   -7.7870   22.1765    3.8982 O   0  0  0  0  0  0  0  0  0  0  0  0
   -5.8901   23.3419    3.6585 N   0  0  0  0  0  0  0  0  0  0  0  0
   -4.9164   24.2088    4.1735 C   0  0  0  0  0  0  0  0  0  0  0  0
   -3.7710   23.6965    4.7784 C   0  0  0  0  0  0  0  0  0  0  0  0
   -2.7921   24.5619    5.2585 C   0  0  0  0  0  0  0  0  0  0  0  0
   -2.9573   25.9458    5.1348 C   0  0  0  0  0  0  0  0  0  0  0  0
   -4.1045   26.4916    4.5486 C   0  0  0  0  0  0  0  0  0  0  0  0
   -4.2930   27.8552    4.3322 N   0  0  0  0  0  0  0  0  0  0  0  0
   -3.5597   28.8841    5.0632 C   0  0  2  0  0  0  0  0  0  0  0  0
   -4.0643   28.9909    6.5017 C   0  0  0  0  0  0  0  0  0  0  0  0
   -3.7832   30.1920    4.3396 C   0  0  0  0  0  0  0  0  0  0  0  0
   -3.0320   30.4923    3.0655 C   0  0  0  0  0  0  0  0  0  0  0  0
   -2.7118   31.2552    4.3207 C   0  0  0  0  0  0  0  0  0  0  0  0
   -5.0573   25.5955    4.0376 C   0  0  0  0  0  0  0  0  0  0  0  0
  1  2  1  0
  2  3  1  0
  2  4  2  3
  4  5  1  0
  5  6  2  0
  6  7  1  0
  7  8  2  0
  8  9  1  0
  9 10  1  0
 10 11  1  0
 11 12  1  1
 11 13  1  0
 13 14  1  0
 14 15  1  0
  9 16  2  0
 16  5  1  0
 15 13  1  0
M  END
>  <Energy>  (1342) 
-1.7507049755691986

>  <Energy_Delta>  (1342) 
0.28949582254724859

>  <std_smi>  (1342) 
CC(=O)Nc1cccc(NC(C)C2CC2)c1

>  <enum_smi>  (1342) 
CC(O)=Nc1cccc(NC(C)C2CC2)c1

>  <enum_code>  (1342) 
T

>  <parent_uuid>  (1342) 
80177037-97d9-4251-9583-a2fb747585df

>  <o3da_score>  (1342) 
82.886614607093037

>  <o3da_score_rel>  (1342) 
0.32998365583434069

>  <o3da_align>  (1342) 
0.38601330884935525

>  <RMSD>  (1342) 
0.31792094597918341

>  <CONVERGED>  (1342) 
0

>  <ENERGY>  (1342) 
-1.5611146608170265

$$$$
f78f5899-7f06-4656-9911-0de2591275d6
     RDKit          3D

 16 17  0  0  0  0  0  0  0  0999 V2000
   -2.3553   23.9517    7.9160 C   0  0  0  0  0  0  0  0  0  0  0  0
   -1.3320   23.9481    6.8278 C   0  0  0  0  0  0  0  0  0  0  0  0
   -0.1227   23.5231    7.2202 O   0  0  0  0  0  0  0  0  0  0  0  0
   -1.4513   24.2943    5.5911 N   0  0  0  0  0  0  0  0  0  0  0  0
   -2.7020   24.7481    5.1479 C   0  0  0  0  0  0  0  0  0  0  0  0
   -3.6056   23.8547    4.5751 C   0  0  0  0  0  0  0  0  0  0  0  0
   -4.8504   24.3046    4.1474 C   0  0  0  0  0  0  0  0  0  0  0  0
   -5.1788   25.6575    4.2679 C   0  0  0  0  0  0  0  0  0  0  0  0
   -4.2656   26.5928    4.7794 C   0  0  0  0  0  0  0  0  0  0  0  0
   -4.6819   27.9188    4.9179 N   0  0  0  0  0  0  0  0  0  0  0  0
   -3.7313   29.0287    4.9852 C   0  0  2  0  0  0  0  0  0  0  0  0
   -4.4481   30.2216    5.6245 C   0  0  0  0  0  0  0  0  0  0  0  0
   -3.2785   29.3884    3.5919 C   0  0  0  0  0  0  0  0  0  0  0  0
   -2.0107   30.1813    3.3805 C   0  0  0  0  0  0  0  0  0  0  0  0
   -2.0671   28.7378    2.9686 C   0  0  0  0  0  0  0  0  0  0  0  0
   -3.0379   26.1061    5.2427 C   0  0  0  0  0  0  0  0  0  0  0  0
  1  2  1  0
  2  3  1  0
  2  4  2  3
  4  5  1  0
  5  6  2  0
  6  7  1  0
  7  8  2  0
  8  9  1  0
  9 10  1  0
 10 11  1  0
 11 12  1  6
 11 13  1  0
 13 14  1  0
 14 15  1  0
  9 16  2  0
 16  5  1  0
 15 13  1  0
M  END
>  <Energy>  (1343) 
-1.5847140305994578

>  <Energy_Delta>  (1343) 
0.45548676751698935

>  <std_smi>  (1343) 
CC(=O)Nc1cccc(NC(C)C2CC2)c1

>  <enum_smi>  (1343) 
CC(O)=Nc1cccc(NC(C)C2CC2)c1

>  <enum_code>  (1343) 
T

>  <parent_uuid>  (1343) 
80177037-97d9-4251-9583-a2fb747585df

>  <o3da_score>  (1343) 
91.543163832971715

>  <o3da_score_rel>  (1343) 
0.36444663606349015

>  <o3da_align>  (1343) 
0.27947220608202583

>  <RMSD>  (1343) 
5.7898910040667363e-05

>  <CONVERGED>  (1343) 
0

>  <ENERGY>  (1343) 
-1.5847140324325006

$$$$
f78f5899-7f06-4656-9911-0de2591275d6
     RDKit          3D

 16 17  0  0  0  0  0  0  0  0999 V2000
   -4.8256   23.3905    1.3868 C   0  0  0  0  0  0  0  0  0  0  0  0
   -5.8264   23.0331    2.4366 C   0  0  0  0  0  0  0  0  0  0  0  0
   -6.7947   22.2114    2.0073 O   0  0  0  0  0  0  0  0  0  0  0  0
   -5.8849   23.4024    3.6711 N   0  0  0  0  0  0  0  0  0  0  0  0
   -4.8900   24.2649    4.1522 C   0  0  0  0  0  0  0  0  0  0  0  0
   -3.7533   23.7479    4.7694 C   0  0  0  0  0  0  0  0  0  0  0  0
   -2.7646   24.6086    5.2376 C   0  0  0  0  0  0  0  0  0  0  0  0
   -2.9229   25.9931    5.1121 C   0  0  0  0  0  0  0  0  0  0  0  0
   -4.0813   26.5442    4.5537 C   0  0  0  0  0  0  0  0  0  0  0  0
   -4.2740   27.9104    4.3502 N   0  0  0  0  0  0  0  0  0  0  0  0
   -3.5285   28.9296    5.0838 C   0  0  2  0  0  0  0  0  0  0  0  0
   -4.0091   29.0176    6.5319 C   0  0  0  0  0  0  0  0  0  0  0  0
   -3.7642   30.2469    4.3812 C   0  0  0  0  0  0  0  0  0  0  0  0
   -3.0310   30.5664    3.1012 C   0  0  0  0  0  0  0  0  0  0  0  0
   -2.6951   31.3123    4.3625 C   0  0  0  0  0  0  0  0  0  0  0  0
   -5.0451   25.6532    4.0548 C   0  0  0  0  0  0  0  0  0  0  0  0
  1  2  1  0
  2  3  1  0
  2  4  2  3
  4  5  1  0
  5  6  2  0
  6  7  1  0
  7  8  2  0
  8  9  1  0
  9 10  1  0
 10 11  1  0
 11 12  1  1
 11 13  1  0
 13 14  1  0
 14 15  1  0
  9 16  2  0
 16  5  1  0
 15 13  1  0
M  END
>  <Energy>  (1344) 
-1.4274347782295322

>  <Energy_Delta>  (1344) 
0.61276601988691493

>  <std_smi>  (1344) 
CC(=O)Nc1cccc(NC(C)C2CC2)c1

>  <enum_smi>  (1344) 
CC(O)=Nc1cccc(NC(C)C2CC2)c1

>  <enum_code>  (1344) 
T

>  <parent_uuid>  (1344) 
80177037-97d9-4251-9583-a2fb747585df

>  <o3da_score>  (1344) 
82.858087142835359

>  <o3da_score_rel>  (1344) 
0.32987008385420791

>  <o3da_align>  (1344) 
0.3872288103924697

>  <RMSD>  (1344) 
0.33346398601085636

>  <CONVERGED>  (1344) 
0

>  <ENERGY>  (1344) 
-1.8842363787478598

$$$$
f78f5899-7f06-4656-9911-0de2591275d6
     RDKit          3D

 16 17  0  0  0  0  0  0  0  0999 V2000
   -0.0048   29.3681    2.0529 C   0  0  0  0  0  0  0  0  0  0  0  0
   -0.8878   30.5073    1.6605 C   0  0  0  0  0  0  0  0  0  0  0  0
   -0.5862   31.0436    0.4695 O   0  0  0  0  0  0  0  0  0  0  0  0
   -1.8805   31.0301    2.2967 N   0  0  0  0  0  0  0  0  0  0  0  0
   -2.2256   30.4906    3.5442 C   0  0  0  0  0  0  0  0  0  0  0  0
   -1.6965   31.0382    4.7118 C   0  0  0  0  0  0  0  0  0  0  0  0
   -2.0326   30.4957    5.9478 C   0  0  0  0  0  0  0  0  0  0  0  0
   -2.9210   29.4195    6.0150 C   0  0  0  0  0  0  0  0  0  0  0  0
   -3.5184   28.8863    4.8622 C   0  0  0  0  0  0  0  0  0  0  0  0
   -4.3528   27.7772    5.0054 N   0  0  0  0  0  0  0  0  0  0  0  0
   -5.2652   27.3362    3.9513 C   0  0  2  0  0  0  0  0  0  0  0  0
   -6.4621   28.2842    3.8532 C   0  0  0  0  0  0  0  0  0  0  0  0
   -5.7538   25.9238    4.2080 C   0  0  0  0  0  0  0  0  0  0  0  0
   -4.9269   24.9009    4.9527 C   0  0  0  0  0  0  0  0  0  0  0  0
   -6.1967   25.4284    5.5663 C   0  0  0  0  0  0  0  0  0  0  0  0
   -3.1328   29.4248    3.6291 C   0  0  0  0  0  0  0  0  0  0  0  0
  1  2  1  0
  2  3  1  0
  2  4  2  3
  4  5  1  0
  5  6  2  0
  6  7  1  0
  7  8  2  0
  8  9  1  0
  9 10  1  0
 10 11  1  0
 11 12  1  1
 11 13  1  0
 13 14  1  0
 14 15  1  0
  9 16  2  0
 16  5  1  0
 15 13  1  0
M  END
>  <Energy>  (1345) 
-0.61302881022638656

>  <Energy_Delta>  (1345) 
1.4271719878900606

>  <std_smi>  (1345) 
CC(=O)Nc1cccc(NC(C)C2CC2)c1

>  <enum_smi>  (1345) 
CC(O)=Nc1cccc(NC(C)C2CC2)c1

>  <enum_code>  (1345) 
T

>  <parent_uuid>  (1345) 
80177037-97d9-4251-9583-a2fb747585df

>  <o3da_score>  (1345) 
75.008831498340101

>  <o3da_score_rel>  (1345) 
0.29862105666897615

>  <o3da_align>  (1345) 
0.56809275426398875

>  <RMSD>  (1345) 
7.1109515313929941e-05

>  <CONVERGED>  (1345) 
0

>  <ENERGY>  (1345) 
-0.61302881047481794

$$$$
f78f5899-7f06-4656-9911-0de2591275d6
     RDKit          3D

 16 17  0  0  0  0  0  0  0  0999 V2000
   -6.8108   23.0904    6.0015 C   0  0  0  0  0  0  0  0  0  0  0  0
   -6.6573   22.8613    4.5334 C   0  0  0  0  0  0  0  0  0  0  0  0
   -7.5428   21.9937    4.0231 O   0  0  0  0  0  0  0  0  0  0  0  0
   -5.8094   23.3761    3.7090 N   0  0  0  0  0  0  0  0  0  0  0  0
   -4.8715   24.2904    4.2085 C   0  0  0  0  0  0  0  0  0  0  0  0
   -3.6137   23.8519    4.6156 C   0  0  0  0  0  0  0  0  0  0  0  0
   -2.6897   24.7631    5.1190 C   0  0  0  0  0  0  0  0  0  0  0  0
   -3.0131   26.1224    5.1928 C   0  0  0  0  0  0  0  0  0  0  0  0
   -4.2443   26.6020    4.7330 C   0  0  0  0  0  0  0  0  0  0  0  0
   -4.6495   27.9335    4.8309 N   0  0  0  0  0  0  0  0  0  0  0  0
   -3.7040   29.0377    4.9851 C   0  0  1  0  0  0  0  0  0  0  0  0
   -2.9784   29.3044    3.6649 C   0  0  0  0  0  0  0  0  0  0  0  0
   -4.4086   30.2999    5.4432 C   0  0  0  0  0  0  0  0  0  0  0  0
   -5.7251   30.7746    4.8703 C   0  0  0  0  0  0  0  0  0  0  0  0
   -5.6620   30.2697    6.2874 C   0  0  0  0  0  0  0  0  0  0  0  0
   -5.1723   25.6568    4.2664 C   0  0  0  0  0  0  0  0  0  0  0  0
  1  2  1  0
  2  3  1  0
  2  4  2  3
  4  5  1  0
  5  6  2  0
  6  7  1  0
  7  8  2  0
  8  9  1  0
  9 10  1  0
 10 11  1  0
 11 12  1  6
 11 13  1  0
 13 14  1  0
 14 15  1  0
  9 16  2  0
 16  5  1  0
 15 13  1  0
M  END
>  <Energy>  (1346) 
-0.46264442970808606

>  <Energy_Delta>  (1346) 
1.5775563684083611

>  <std_smi>  (1346) 
CC(=O)Nc1cccc(NC(C)C2CC2)c1

>  <enum_smi>  (1346) 
CC(O)=Nc1cccc(NC(C)C2CC2)c1

>  <enum_code>  (1346) 
T

>  <parent_uuid>  (1346) 
80177037-97d9-4251-9583-a2fb747585df

>  <o3da_score>  (1346) 
80.537899172052988

>  <o3da_score_rel>  (1346) 
0.32063307842877331

>  <o3da_align>  (1346) 
0.11225510456610853

>  <RMSD>  (1346) 
6.3820516568360185e-05

>  <CONVERGED>  (1346) 
0

>  <ENERGY>  (1346) 
-0.46264443059287896

$$$$
f78f5899-7f06-4656-9911-0de2591275d6
     RDKit          3D

 16 17  0  0  0  0  0  0  0  0999 V2000
   -5.6310   23.7302    1.5424 C   0  0  0  0  0  0  0  0  0  0  0  0
   -6.3639   23.2533    2.7535 C   0  0  0  0  0  0  0  0  0  0  0  0
   -7.3917   22.4371    2.4806 O   0  0  0  0  0  0  0  0  0  0  0  0
   -6.1480   23.5174    3.9974 N   0  0  0  0  0  0  0  0  0  0  0  0
   -5.0833   24.3709    4.3183 C   0  0  0  0  0  0  0  0  0  0  0  0
   -3.8290   23.8441    4.6179 C   0  0  0  0  0  0  0  0  0  0  0  0
   -2.7733   24.6968    4.9277 C   0  0  0  0  0  0  0  0  0  0  0  0
   -2.9766   26.0806    4.9635 C   0  0  0  0  0  0  0  0  0  0  0  0
   -4.2392   26.6357    4.7289 C   0  0  0  0  0  0  0  0  0  0  0  0
   -4.4926   28.0060    4.6948 N   0  0  0  0  0  0  0  0  0  0  0  0
   -3.6267   28.9921    5.3399 C   0  0  2  0  0  0  0  0  0  0  0  0
   -3.7829   28.9216    6.8587 C   0  0  0  0  0  0  0  0  0  0  0  0
   -3.9784   30.3284    4.7236 C   0  0  0  0  0  0  0  0  0  0  0  0
   -5.2352   31.0883    5.0813 C   0  0  0  0  0  0  0  0  0  0  0  0
   -3.8885   31.6496    5.4515 C   0  0  0  0  0  0  0  0  0  0  0  0
   -5.2772   25.7563    4.3809 C   0  0  0  0  0  0  0  0  0  0  0  0
  1  2  1  0
  2  3  1  0
  2  4  2  3
  4  5  1  0
  5  6  2  0
  6  7  1  0
  7  8  2  0
  8  9  1  0
  9 10  1  0
 10 11  1  0
 11 12  1  1
 11 13  1  0
 13 14  1  0
 14 15  1  0
  9 16  2  0
 16  5  1  0
 15 13  1  0
M  END
>  <Energy>  (1347) 
0.37964127328535013

>  <Energy_Delta>  (1347) 
2.4198420714017974

>  <std_smi>  (1347) 
CC(=O)Nc1cccc(NC(C)C2CC2)c1

>  <enum_smi>  (1347) 
CC(O)=Nc1cccc(NC(C)C2CC2)c1

>  <enum_code>  (1347) 
T

>  <parent_uuid>  (1347) 
80177037-97d9-4251-9583-a2fb747585df

>  <o3da_score>  (1347) 
77.589570580791786

>  <o3da_score_rel>  (1347) 
0.30889535392696904

>  <o3da_align>  (1347) 
0.40428155465726662

>  <RMSD>  (1347) 
6.440391505392479e-05

>  <CONVERGED>  (1347) 
0

>  <ENERGY>  (1347) 
0.37964127324607555

$$$$
f78f5899-7f06-4656-9911-0de2591275d6
     RDKit          3D

 16 17  0  0  0  0  0  0  0  0999 V2000
   -3.4773   24.1672    4.2539 C   0  0  0  0  0  0  0  0  0  0  0  0
   -4.9350   24.4935    4.2414 C   0  0  0  0  0  0  0  0  0  0  0  0
   -5.7111   23.4974    3.7916 O   0  0  0  0  0  0  0  0  0  0  0  0
   -5.5333   25.5804    4.5940 N   0  0  0  0  0  0  0  0  0  0  0  0
   -4.7513   26.6439    5.0656 C   0  0  0  0  0  0  0  0  0  0  0  0
   -4.5205   26.7920    6.4313 C   0  0  0  0  0  0  0  0  0  0  0  0
   -3.7363   27.8452    6.8933 C   0  0  0  0  0  0  0  0  0  0  0  0
   -3.2009   28.7698    5.9900 C   0  0  0  0  0  0  0  0  0  0  0  0
   -3.4668   28.6838    4.6192 C   0  0  0  0  0  0  0  0  0  0  0  0
   -2.9179   29.5391    3.6649 N   0  0  0  0  0  0  0  0  0  0  0  0
   -2.4014   30.8680    3.9901 C   0  0  2  0  0  0  0  0  0  0  0  0
   -3.5536   31.8238    4.2981 C   0  0  0  0  0  0  0  0  0  0  0  0
   -1.5275   31.2766    2.8245 C   0  0  0  0  0  0  0  0  0  0  0  0
   -1.3315   32.7041    2.3693 C   0  0  0  0  0  0  0  0  0  0  0  0
   -2.0933   31.7389    1.5011 C   0  0  0  0  0  0  0  0  0  0  0  0
   -4.2281   27.5904    4.1759 C   0  0  0  0  0  0  0  0  0  0  0  0
  1  2  1  0
  2  3  1  0
  2  4  2  3
  4  5  1  0
  5  6  2  0
  6  7  1  0
  7  8  2  0
  8  9  1  0
  9 10  1  0
 10 11  1  0
 11 12  1  6
 11 13  1  0
 13 14  1  0
 14 15  1  0
  9 16  2  0
 16  5  1  0
 15 13  1  0
M  END
>  <Energy>  (1348) 
0.37964127349331089

>  <Energy_Delta>  (1348) 
2.4198420716097582

>  <std_smi>  (1348) 
CC(=O)Nc1cccc(NC(C)C2CC2)c1

>  <enum_smi>  (1348) 
CC(O)=Nc1cccc(NC(C)C2CC2)c1

>  <enum_code>  (1348) 
T

>  <parent_uuid>  (1348) 
80177037-97d9-4251-9583-a2fb747585df

>  <o3da_score>  (1348) 
77.583885504762065

>  <o3da_score_rel>  (1348) 
0.3088727208132766

>  <o3da_align>  (1348) 
0.45483008636496797

>  <RMSD>  (1348) 
6.7683167227845635e-05

>  <CONVERGED>  (1348) 
0

>  <ENERGY>  (1348) 
0.37964127326457553

$$$$
f78f5899-7f06-4656-9911-0de2591275d6
     RDKit          3D

 16 17  0  0  0  0  0  0  0  0999 V2000
   -0.0986   24.9516    4.0325 C   0  0  0  0  0  0  0  0  0  0  0  0
   -0.3717   24.5259    5.4380 C   0  0  0  0  0  0  0  0  0  0  0  0
    0.7229   24.1526    6.1155 O   0  0  0  0  0  0  0  0  0  0  0  0
   -1.4925   24.4758    6.0739 N   0  0  0  0  0  0  0  0  0  0  0  0
   -2.6569   24.8657    5.3969 C   0  0  0  0  0  0  0  0  0  0  0  0
   -3.4469   23.9096    4.7608 C   0  0  0  0  0  0  0  0  0  0  0  0
   -4.6181   24.2933    4.1157 C   0  0  0  0  0  0  0  0  0  0  0  0
   -4.9965   25.6384    4.1054 C   0  0  0  0  0  0  0  0  0  0  0  0
   -4.2131   26.6272    4.7200 C   0  0  0  0  0  0  0  0  0  0  0  0
   -4.6889   27.9364    4.7271 N   0  0  0  0  0  0  0  0  0  0  0  0
   -3.8549   29.0889    5.0636 C   0  0  1  0  0  0  0  0  0  0  0  0
   -2.8706   29.3786    3.9307 C   0  0  0  0  0  0  0  0  0  0  0  0
   -4.8075   30.2190    5.3862 C   0  0  0  0  0  0  0  0  0  0  0  0
   -5.5610   30.9829    4.3214 C   0  0  0  0  0  0  0  0  0  0  0  0
   -4.5072   31.6794    5.1400 C   0  0  0  0  0  0  0  0  0  0  0  0
   -3.0631   26.2077    5.3988 C   0  0  0  0  0  0  0  0  0  0  0  0
  1  2  1  0
  2  3  1  0
  2  4  2  3
  4  5  1  0
  5  6  2  0
  6  7  1  0
  7  8  2  0
  8  9  1  0
  9 10  1  0
 10 11  1  0
 11 12  1  6
 11 13  1  0
 13 14  1  0
 14 15  1  0
  9 16  2  0
 16  5  1  0
 15 13  1  0
M  END
>  <Energy>  (1349) 
0.43106825111775759

>  <Energy_Delta>  (1349) 
2.4712690492342047

>  <std_smi>  (1349) 
CC(=O)Nc1cccc(NC(C)C2CC2)c1

>  <enum_smi>  (1349) 
CC(O)=Nc1cccc(NC(C)C2CC2)c1

>  <enum_code>  (1349) 
T

>  <parent_uuid>  (1349) 
80177037-97d9-4251-9583-a2fb747585df

>  <o3da_score>  (1349) 
84.083622479761175

>  <o3da_score_rel>  (1349) 
0.33474911809574326

>  <o3da_align>  (1349) 
0.37681072738826216

>  <RMSD>  (1349) 
6.1637543291251999e-05

>  <CONVERGED>  (1349) 
0

>  <ENERGY>  (1349) 
0.43106825031830642

$$$$
f78f5899-7f06-4656-9911-0de2591275d6
     RDKit          3D

 16 17  0  0  0  0  0  0  0  0999 V2000
   -5.8519   23.8893    1.5050 C   0  0  0  0  0  0  0  0  0  0  0  0
   -6.4992   23.3442    2.7360 C   0  0  0  0  0  0  0  0  0  0  0  0
   -7.5392   22.5348    2.4904 O   0  0  0  0  0  0  0  0  0  0  0  0
   -6.2012   23.5452    3.9747 N   0  0  0  0  0  0  0  0  0  0  0  0
   -5.1214   24.3898    4.2674 C   0  0  0  0  0  0  0  0  0  0  0  0
   -3.8477   23.8589    4.4557 C   0  0  0  0  0  0  0  0  0  0  0  0
   -2.7789   24.7032    4.7420 C   0  0  0  0  0  0  0  0  0  0  0  0
   -2.9857   26.0820    4.8628 C   0  0  0  0  0  0  0  0  0  0  0  0
   -4.2620   26.6392    4.7342 C   0  0  0  0  0  0  0  0  0  0  0  0
   -4.5318   28.0029    4.7921 N   0  0  0  0  0  0  0  0  0  0  0  0
   -3.5830   29.0085    5.2558 C   0  0  1  0  0  0  0  0  0  0  0  0
   -3.9149   30.3263    4.5458 C   0  0  0  0  0  0  0  0  0  0  0  0
   -3.6072   29.2172    6.7528 C   0  0  0  0  0  0  0  0  0  0  0  0
   -4.8935   29.4330    7.5191 C   0  0  0  0  0  0  0  0  0  0  0  0
   -4.0821   28.1894    7.7559 C   0  0  0  0  0  0  0  0  0  0  0  0
   -5.3169   25.7685    4.4148 C   0  0  0  0  0  0  0  0  0  0  0  0
  1  2  1  0
  2  3  1  0
  2  4  2  3
  4  5  1  0
  5  6  2  0
  6  7  1  0
  7  8  2  0
  8  9  1  0
  9 10  1  0
 10 11  1  0
 11 12  1  6
 11 13  1  0
 13 14  1  0
 14 15  1  0
  9 16  2  0
 16  5  1  0
 15 13  1  0
M  END
>  <Energy>  (1350) 
0.45793692024177668

>  <Energy_Delta>  (1350) 
2.4981377183582238

>  <std_smi>  (1350) 
CC(=O)Nc1cccc(NC(C)C2CC2)c1

>  <enum_smi>  (1350) 
CC(O)=Nc1cccc(NC(C)C2CC2)c1

>  <enum_code>  (1350) 
T

>  <parent_uuid>  (1350) 
80177037-97d9-4251-9583-a2fb747585df

>  <o3da_score>  (1350) 
77.815152710147572

>  <o3da_score_rel>  (1350) 
0.30979342916008812

>  <o3da_align>  (1350) 
0.40084080713410836

>  <RMSD>  (1350) 
6.3668921560205982e-05

>  <CONVERGED>  (1350) 
0

>  <ENERGY>  (1350) 
0.4579369192526761

$$$$
f78f5899-7f06-4656-9911-0de2591275d6
     RDKit          3D

 16 17  0  0  0  0  0  0  0  0999 V2000
   -2.2305   24.3722    8.0699 C   0  0  0  0  0  0  0  0  0  0  0  0
   -1.3409   24.0033    6.9280 C   0  0  0  0  0  0  0  0  0  0  0  0
   -0.1472   23.5219    7.3022 O   0  0  0  0  0  0  0  0  0  0  0  0
   -1.5601   24.0889    5.6601 N   0  0  0  0  0  0  0  0  0  0  0  0
   -2.7965   24.5945    5.2336 C   0  0  0  0  0  0  0  0  0  0  0  0
   -3.8432   23.7217    4.9410 C   0  0  0  0  0  0  0  0  0  0  0  0
   -5.0596   24.2223    4.4884 C   0  0  0  0  0  0  0  0  0  0  0  0
   -5.2281   25.6006    4.3320 C   0  0  0  0  0  0  0  0  0  0  0  0
   -4.2003   26.5065    4.6367 C   0  0  0  0  0  0  0  0  0  0  0  0
   -4.4214   27.8608    4.3894 N   0  0  0  0  0  0  0  0  0  0  0  0
   -3.5603   28.9152    4.9209 C   0  0  2  0  0  0  0  0  0  0  0  0
   -3.8120   29.1020    6.4184 C   0  0  0  0  0  0  0  0  0  0  0  0
   -3.7924   30.2276    4.1978 C   0  0  0  0  0  0  0  0  0  0  0  0
   -4.2492   30.2926    2.7584 C   0  0  0  0  0  0  0  0  0  0  0  0
   -5.1659   30.7608    3.8573 C   0  0  0  0  0  0  0  0  0  0  0  0
   -2.9733   25.9731    5.0478 C   0  0  0  0  0  0  0  0  0  0  0  0
  1  2  1  0
  2  3  1  0
  2  4  2  3
  4  5  1  0
  5  6  2  0
  6  7  1  0
  7  8  2  0
  8  9  1  0
  9 10  1  0
 10 11  1  0
 11 12  1  1
 11 13  1  0
 13 14  1  0
 14 15  1  0
  9 16  2  0
 16  5  1  0
 15 13  1  0
M  END
>  <Energy>  (1351) 
0.52376140218041911

>  <Energy_Delta>  (1351) 
2.5639622002968663

>  <std_smi>  (1351) 
CC(=O)Nc1cccc(NC(C)C2CC2)c1

>  <enum_smi>  (1351) 
CC(O)=Nc1cccc(NC(C)C2CC2)c1

>  <enum_code>  (1351) 
T

>  <parent_uuid>  (1351) 
80177037-97d9-4251-9583-a2fb747585df

>  <o3da_score>  (1351) 
78.100906158018134

>  <o3da_score_rel>  (1351) 
0.31093105515485914

>  <o3da_align>  (1351) 
0.36047154352196931

>  <RMSD>  (1351) 
0.22432794575963372

>  <CONVERGED>  (1351) 
0

>  <ENERGY>  (1351) 
-0.3793437622510849

$$$$
f78f5899-7f06-4656-9911-0de2591275d6
     RDKit          3D

 16 17  0  0  0  0  0  0  0  0999 V2000
   -6.9246   23.1021    5.7851 C   0  0  0  0  0  0  0  0  0  0  0  0
   -6.6864   22.9113    4.3228 C   0  0  0  0  0  0  0  0  0  0  0  0
   -7.5532   22.0741    3.7355 O   0  0  0  0  0  0  0  0  0  0  0  0
   -5.7820   23.4337    3.5660 N   0  0  0  0  0  0  0  0  0  0  0  0
   -4.8613   24.3169    4.1469 C   0  0  0  0  0  0  0  0  0  0  0  0
   -3.6384   23.8445    4.6175 C   0  0  0  0  0  0  0  0  0  0  0  0
   -2.7321   24.7247    5.2018 C   0  0  0  0  0  0  0  0  0  0  0  0
   -3.0365   26.0873    5.2934 C   0  0  0  0  0  0  0  0  0  0  0  0
   -4.2283   26.6019    4.7719 C   0  0  0  0  0  0  0  0  0  0  0  0
   -4.6171   27.9389    4.8829 N   0  0  0  0  0  0  0  0  0  0  0  0
   -3.6552   29.0243    5.0812 C   0  0  2  0  0  0  0  0  0  0  0  0
   -4.4221   30.2290    5.6305 C   0  0  0  0  0  0  0  0  0  0  0  0
   -2.9253   29.2755    3.7821 C   0  0  0  0  0  0  0  0  0  0  0  0
   -2.5462   30.6461    3.2685 C   0  0  0  0  0  0  0  0  0  0  0  0
   -3.6167   29.8543    2.5685 C   0  0  0  0  0  0  0  0  0  0  0  0
   -5.1422   25.6866    4.2244 C   0  0  0  0  0  0  0  0  0  0  0  0
  1  2  1  0
  2  3  1  0
  2  4  2  3
  4  5  1  0
  5  6  2  0
  6  7  1  0
  7  8  2  0
  8  9  1  0
  9 10  1  0
 10 11  1  0
 11 12  1  6
 11 13  1  0
 13 14  1  0
 14 15  1  0
  9 16  2  0
 16  5  1  0
 15 13  1  0
M  END
>  <Energy>  (1352) 
0.57790956650474623

>  <Energy_Delta>  (1352) 
2.6181103646211934

>  <std_smi>  (1352) 
CC(=O)Nc1cccc(NC(C)C2CC2)c1

>  <enum_smi>  (1352) 
CC(O)=Nc1cccc(NC(C)C2CC2)c1

>  <enum_code>  (1352) 
T

>  <parent_uuid>  (1352) 
80177037-97d9-4251-9583-a2fb747585df

>  <o3da_score>  (1352) 
85.721005544740009

>  <o3da_score_rel>  (1352) 
0.34126777798243524

>  <o3da_align>  (1352) 
0.23774536983980041

>  <RMSD>  (1352) 
6.398774461210522e-05

>  <CONVERGED>  (1352) 
0

>  <ENERGY>  (1352) 
0.57790956598577514

$$$$
f78f5899-7f06-4656-9911-0de2591275d6
     RDKit          3D

 16 17  0  0  0  0  0  0  0  0999 V2000
   -6.9245   23.1021    5.7851 C   0  0  0  0  0  0  0  0  0  0  0  0
   -6.6864   22.9113    4.3228 C   0  0  0  0  0  0  0  0  0  0  0  0
   -7.5532   22.0741    3.7356 O   0  0  0  0  0  0  0  0  0  0  0  0
   -5.7820   23.4337    3.5660 N   0  0  0  0  0  0  0  0  0  0  0  0
   -4.8613   24.3169    4.1470 C   0  0  0  0  0  0  0  0  0  0  0  0
   -3.6384   23.8445    4.6175 C   0  0  0  0  0  0  0  0  0  0  0  0
   -2.7321   24.7247    5.2018 C   0  0  0  0  0  0  0  0  0  0  0  0
   -3.0365   26.0873    5.2934 C   0  0  0  0  0  0  0  0  0  0  0  0
   -4.2283   26.6019    4.7719 C   0  0  0  0  0  0  0  0  0  0  0  0
   -4.6171   27.9389    4.8829 N   0  0  0  0  0  0  0  0  0  0  0  0
   -3.6552   29.0243    5.0812 C   0  0  2  0  0  0  0  0  0  0  0  0
   -4.4221   30.2290    5.6306 C   0  0  0  0  0  0  0  0  0  0  0  0
   -2.9253   29.2755    3.7821 C   0  0  0  0  0  0  0  0  0  0  0  0
   -3.6168   29.8544    2.5685 C   0  0  0  0  0  0  0  0  0  0  0  0
   -2.5463   30.6461    3.2685 C   0  0  0  0  0  0  0  0  0  0  0  0
   -5.1422   25.6866    4.2244 C   0  0  0  0  0  0  0  0  0  0  0  0
  1  2  1  0
  2  3  1  0
  2  4  2  3
  4  5  1  0
  5  6  2  0
  6  7  1  0
  7  8  2  0
  8  9  1  0
  9 10  1  0
 10 11  1  0
 11 12  1  6
 11 13  1  0
 13 14  1  0
 14 15  1  0
  9 16  2  0
 16  5  1  0
 15 13  1  0
M  END
>  <Energy>  (1353) 
0.57790956715290753

>  <Energy_Delta>  (1353) 
2.6181103652693549

>  <std_smi>  (1353) 
CC(=O)Nc1cccc(NC(C)C2CC2)c1

>  <enum_smi>  (1353) 
CC(O)=Nc1cccc(NC(C)C2CC2)c1

>  <enum_code>  (1353) 
T

>  <parent_uuid>  (1353) 
80177037-97d9-4251-9583-a2fb747585df

>  <o3da_score>  (1353) 
85.720953532520284

>  <o3da_score_rel>  (1353) 
0.34126757091423132

>  <o3da_align>  (1353) 
0.23774715671077462

>  <RMSD>  (1353) 
6.1028636643774556e-05

>  <CONVERGED>  (1353) 
0

>  <ENERGY>  (1353) 
0.57790956572696606

$$$$
f78f5899-7f06-4656-9911-0de2591275d6
     RDKit          3D

 16 17  0  0  0  0  0  0  0  0999 V2000
   -6.8794   23.2561    6.0436 C   0  0  0  0  0  0  0  0  0  0  0  0
   -6.7103   22.9053    4.6015 C   0  0  0  0  0  0  0  0  0  0  0  0
   -7.6171   22.0303    4.1448 O   0  0  0  0  0  0  0  0  0  0  0  0
   -5.8308   23.3233    3.7562 N   0  0  0  0  0  0  0  0  0  0  0  0
   -4.8689   24.2420    4.1989 C   0  0  0  0  0  0  0  0  0  0  0  0
   -3.6394   23.7943    4.6765 C   0  0  0  0  0  0  0  0  0  0  0  0
   -2.6758   24.7126    5.0835 C   0  0  0  0  0  0  0  0  0  0  0  0
   -2.9404   26.0848    5.0144 C   0  0  0  0  0  0  0  0  0  0  0  0
   -4.1723   26.5654    4.5574 C   0  0  0  0  0  0  0  0  0  0  0  0
   -4.4696   27.9180    4.3955 N   0  0  0  0  0  0  0  0  0  0  0  0
   -3.7420   28.9800    5.0867 C   0  0  2  0  0  0  0  0  0  0  0  0
   -4.1441   29.0247    6.5621 C   0  0  0  0  0  0  0  0  0  0  0  0
   -4.0038   30.3291    4.4460 C   0  0  0  0  0  0  0  0  0  0  0  0
   -5.3759   30.7951    4.0136 C   0  0  0  0  0  0  0  0  0  0  0  0
   -4.3289   30.4819    2.9779 C   0  0  0  0  0  0  0  0  0  0  0  0
   -5.1109   25.6188    4.1155 C   0  0  0  0  0  0  0  0  0  0  0  0
  1  2  1  0
  2  3  1  0
  2  4  2  3
  4  5  1  0
  5  6  2  0
  6  7  1  0
  7  8  2  0
  8  9  1  0
  9 10  1  0
 10 11  1  0
 11 12  1  1
 11 13  1  0
 13 14  1  0
 14 15  1  0
  9 16  2  0
 16  5  1  0
 15 13  1  0
M  END
>  <Energy>  (1354) 
0.70503480179622435

>  <Energy_Delta>  (1354) 
2.7452355999126716

>  <std_smi>  (1354) 
CC(=O)Nc1cccc(NC(C)C2CC2)c1

>  <enum_smi>  (1354) 
CC(O)=Nc1cccc(NC(C)C2CC2)c1

>  <enum_code>  (1354) 
T

>  <parent_uuid>  (1354) 
80177037-97d9-4251-9583-a2fb747585df

>  <o3da_score>  (1354) 
74.902137139096538

>  <o3da_score_rel>  (1354) 
0.29819629092257682

>  <o3da_align>  (1354) 
0.034673581070653964

>  <RMSD>  (1354) 
0.26233681577207824

>  <CONVERGED>  (1354) 
0

>  <ENERGY>  (1354) 
-0.14008262450746511

$$$$
f78f5899-7f06-4656-9911-0de2591275d6
     RDKit          3D

 16 17  0  0  0  0  0  0  0  0999 V2000
   -0.2732   23.2498    7.6406 C   0  0  0  0  0  0  0  0  0  0  0  0
   -1.5152   23.8226    7.0428 C   0  0  0  0  0  0  0  0  0  0  0  0
   -2.4367   24.1416    7.9725 O   0  0  0  0  0  0  0  0  0  0  0  0
   -1.6634   23.9828    5.7701 N   0  0  0  0  0  0  0  0  0  0  0  0
   -2.8477   24.5287    5.2613 C   0  0  0  0  0  0  0  0  0  0  0  0
   -3.8845   23.6902    4.8569 C   0  0  0  0  0  0  0  0  0  0  0  0
   -5.0578   24.2347    4.3453 C   0  0  0  0  0  0  0  0  0  0  0  0
   -5.1930   25.6219    4.2439 C   0  0  0  0  0  0  0  0  0  0  0  0
   -4.1749   26.4929    4.6611 C   0  0  0  0  0  0  0  0  0  0  0  0
   -4.3551   27.8594    4.4670 N   0  0  0  0  0  0  0  0  0  0  0  0
   -3.4999   28.8733    5.0762 C   0  0  2  0  0  0  0  0  0  0  0  0
   -3.8038   29.0128    6.5674 C   0  0  0  0  0  0  0  0  0  0  0  0
   -3.7792   30.1788    4.3681 C   0  0  0  0  0  0  0  0  0  0  0  0
   -3.1974   30.4392    3.0000 C   0  0  0  0  0  0  0  0  0  0  0  0
   -2.6880   31.2061    4.1884 C   0  0  0  0  0  0  0  0  0  0  0  0
   -2.9894   25.9175    5.1329 C   0  0  0  0  0  0  0  0  0  0  0  0
  1  2  1  0
  2  3  1  0
  2  4  2  3
  4  5  1  0
  5  6  2  0
  6  7  1  0
  7  8  2  0
  8  9  1  0
  9 10  1  0
 10 11  1  0
 11 12  1  1
 11 13  1  0
 13 14  1  0
 14 15  1  0
  9 16  2  0
 16  5  1  0
 15 13  1  0
M  END
>  <Energy>  (1355) 
0.77743888488967738

>  <Energy_Delta>  (1355) 
2.8176396830061243

>  <std_smi>  (1355) 
CC(=O)Nc1cccc(NC(C)C2CC2)c1

>  <enum_smi>  (1355) 
CC(O)=Nc1cccc(NC(C)C2CC2)c1

>  <enum_code>  (1355) 
T

>  <parent_uuid>  (1355) 
80177037-97d9-4251-9583-a2fb747585df

>  <o3da_score>  (1355) 
82.215955332145754

>  <o3da_score_rel>  (1355) 
0.32731366381674692

>  <o3da_align>  (1355) 
0.415657069308081

>  <RMSD>  (1355) 
0.25463231972577655

>  <CONVERGED>  (1355) 
0

>  <ENERGY>  (1355) 
1.2204386039871826

$$$$
f78f5899-7f06-4656-9911-0de2591275d6
     RDKit          3D

 16 17  0  0  0  0  0  0  0  0999 V2000
    0.9193   23.9298    5.2939 C   0  0  0  0  0  0  0  0  0  0  0  0
   -0.4413   24.3612    4.8569 C   0  0  0  0  0  0  0  0  0  0  0  0
   -0.4579   24.8067    3.5856 O   0  0  0  0  0  0  0  0  0  0  0  0
   -1.4713   24.3009    5.6337 N   0  0  0  0  0  0  0  0  0  0  0  0
   -2.7256   24.7165    5.1731 C   0  0  0  0  0  0  0  0  0  0  0  0
   -3.6135   23.7895    4.6336 C   0  0  0  0  0  0  0  0  0  0  0  0
   -4.8467   24.2122    4.1462 C   0  0  0  0  0  0  0  0  0  0  0  0
   -5.2033   25.5633    4.2174 C   0  0  0  0  0  0  0  0  0  0  0  0
   -4.3568   26.5082    4.8075 C   0  0  0  0  0  0  0  0  0  0  0  0
   -4.6269   27.8755    4.8528 N   0  0  0  0  0  0  0  0  0  0  0  0
   -5.9775   28.4163    4.7198 C   0  0  1  0  0  0  0  0  0  0  0  0
   -6.7964   28.1508    5.9826 C   0  0  0  0  0  0  0  0  0  0  0  0
   -5.8416   29.9048    4.4965 C   0  0  0  0  0  0  0  0  0  0  0  0
   -6.8445   30.6520    3.6513 C   0  0  0  0  0  0  0  0  0  0  0  0
   -5.4473   30.4366    3.1401 C   0  0  0  0  0  0  0  0  0  0  0  0
   -3.1044   26.0616    5.2582 C   0  0  0  0  0  0  0  0  0  0  0  0
  1  2  1  0
  2  3  1  0
  2  4  2  3
  4  5  1  0
  5  6  2  0
  6  7  1  0
  7  8  2  0
  8  9  1  0
  9 10  1  0
 10 11  1  0
 11 12  1  1
 11 13  1  0
 13 14  1  0
 14 15  1  0
  9 16  2  0
 16  5  1  0
 15 13  1  0
M  END
>  <Energy>  (1356) 
0.83193718519064463

>  <Energy_Delta>  (1356) 
2.8721379833070917

>  <std_smi>  (1356) 
CC(=O)Nc1cccc(NC(C)C2CC2)c1

>  <enum_smi>  (1356) 
CC(O)=Nc1cccc(NC(C)C2CC2)c1

>  <enum_code>  (1356) 
T

>  <parent_uuid>  (1356) 
80177037-97d9-4251-9583-a2fb747585df

>  <o3da_score>  (1356) 
74.601345816640588

>  <o3da_score_rel>  (1356) 
0.29699879696414017

>  <o3da_align>  (1356) 
0.096971026839645244

>  <RMSD>  (1356) 
6.5679883201378493e-05

>  <CONVERGED>  (1356) 
0

>  <ENERGY>  (1356) 
0.83193718512999248

$$$$
f78f5899-7f06-4656-9911-0de2591275d6
     RDKit          3D

 16 17  0  0  0  0  0  0  0  0999 V2000
   -7.7096   22.4474    2.4066 C   0  0  0  0  0  0  0  0  0  0  0  0
   -6.5567   23.3164    2.7860 C   0  0  0  0  0  0  0  0  0  0  0  0
   -5.8979   23.7970    1.7136 O   0  0  0  0  0  0  0  0  0  0  0  0
   -6.2477   23.5617    4.0158 N   0  0  0  0  0  0  0  0  0  0  0  0
   -5.1550   24.3822    4.3168 C   0  0  0  0  0  0  0  0  0  0  0  0
   -3.9057   23.8188    4.5635 C   0  0  0  0  0  0  0  0  0  0  0  0
   -2.8144   24.6403    4.8298 C   0  0  0  0  0  0  0  0  0  0  0  0
   -2.9757   26.0295    4.8707 C   0  0  0  0  0  0  0  0  0  0  0  0
   -4.2300   26.6212    4.6854 C   0  0  0  0  0  0  0  0  0  0  0  0
   -4.4443   27.9987    4.6525 N   0  0  0  0  0  0  0  0  0  0  0  0
   -3.5146   28.9549    5.2489 C   0  0  2  0  0  0  0  0  0  0  0  0
   -3.5995   28.9168    6.7743 C   0  0  0  0  0  0  0  0  0  0  0  0
   -3.9013   30.3262    4.7448 C   0  0  0  0  0  0  0  0  0  0  0  0
   -2.8551   31.3946    4.5384 C   0  0  0  0  0  0  0  0  0  0  0  0
   -3.5199   30.7581    3.3498 C   0  0  0  0  0  0  0  0  0  0  0  0
   -5.3065   25.7724    4.3829 C   0  0  0  0  0  0  0  0  0  0  0  0
  1  2  1  0
  2  3  1  0
  2  4  2  3
  4  5  1  0
  5  6  2  0
  6  7  1  0
  7  8  2  0
  8  9  1  0
  9 10  1  0
 10 11  1  0
 11 12  1  1
 11 13  1  0
 13 14  1  0
 14 15  1  0
  9 16  2  0
 16  5  1  0
 15 13  1  0
M  END
>  <Energy>  (1357) 
0.83193718562070995

>  <Energy_Delta>  (1357) 
2.872137983737157

>  <std_smi>  (1357) 
CC(=O)Nc1cccc(NC(C)C2CC2)c1

>  <enum_smi>  (1357) 
CC(O)=Nc1cccc(NC(C)C2CC2)c1

>  <enum_code>  (1357) 
T

>  <parent_uuid>  (1357) 
80177037-97d9-4251-9583-a2fb747585df

>  <o3da_score>  (1357) 
80.618247055057438

>  <o3da_score_rel>  (1357) 
0.32095295502523025

>  <o3da_align>  (1357) 
0.51096511651317567

>  <RMSD>  (1357) 
7.048646807799397e-05

>  <CONVERGED>  (1357) 
0

>  <ENERGY>  (1357) 
0.8319371858403426

$$$$
f78f5899-7f06-4656-9911-0de2591275d6
     RDKit          3D

 16 17  0  0  0  0  0  0  0  0999 V2000
   -0.2890   24.8856    3.5676 C   0  0  0  0  0  0  0  0  0  0  0  0
   -0.4387   24.3059    4.9361 C   0  0  0  0  0  0  0  0  0  0  0  0
    0.7069   23.8502    5.4619 O   0  0  0  0  0  0  0  0  0  0  0  0
   -1.4971   24.1902    5.6636 N   0  0  0  0  0  0  0  0  0  0  0  0
   -2.7122   24.6602    5.1462 C   0  0  0  0  0  0  0  0  0  0  0  0
   -3.5616   23.7968    4.4582 C   0  0  0  0  0  0  0  0  0  0  0  0
   -4.7817   24.2609    3.9750 C   0  0  0  0  0  0  0  0  0  0  0  0
   -5.1558   25.5938    4.1780 C   0  0  0  0  0  0  0  0  0  0  0  0
   -4.3158   26.4907    4.8469 C   0  0  0  0  0  0  0  0  0  0  0  0
   -4.6628   27.8095    5.1455 N   0  0  0  0  0  0  0  0  0  0  0  0
   -5.6684   28.5531    4.3860 C   0  0  1  0  0  0  0  0  0  0  0  0
   -6.1294   29.7280    5.2510 C   0  0  0  0  0  0  0  0  0  0  0  0
   -5.0823   28.9414    3.0482 C   0  0  0  0  0  0  0  0  0  0  0  0
   -5.3190   30.2705    2.3675 C   0  0  0  0  0  0  0  0  0  0  0  0
   -3.9591   29.9457    2.9223 C   0  0  0  0  0  0  0  0  0  0  0  0
   -3.1103   25.9855    5.3607 C   0  0  0  0  0  0  0  0  0  0  0  0
  1  2  1  0
  2  3  1  0
  2  4  2  3
  4  5  1  0
  5  6  2  0
  6  7  1  0
  7  8  2  0
  8  9  1  0
  9 10  1  0
 10 11  1  0
 11 12  1  1
 11 13  1  0
 13 14  1  0
 14 15  1  0
  9 16  2  0
 16  5  1  0
 15 13  1  0
M  END
>  <Energy>  (1358) 
0.83729570467947956

>  <Energy_Delta>  (1358) 
2.8774965027959265

>  <std_smi>  (1358) 
CC(=O)Nc1cccc(NC(C)C2CC2)c1

>  <enum_smi>  (1358) 
CC(O)=Nc1cccc(NC(C)C2CC2)c1

>  <enum_code>  (1358) 
T

>  <parent_uuid>  (1358) 
80177037-97d9-4251-9583-a2fb747585df

>  <o3da_score>  (1358) 
75.711076790598966

>  <o3da_score_rel>  (1358) 
0.3014167972108055

>  <o3da_align>  (1358) 
0.43065340968733185

>  <RMSD>  (1358) 
6.6791253261158483e-05

>  <CONVERGED>  (1358) 
0

>  <ENERGY>  (1358) 
0.83729570365361883

$$$$
f78f5899-7f06-4656-9911-0de2591275d6
     RDKit          3D

 16 17  0  0  0  0  0  0  0  0999 V2000
   -4.8229   23.8142    1.2670 C   0  0  0  0  0  0  0  0  0  0  0  0
   -5.7436   23.2340    2.2901 C   0  0  0  0  0  0  0  0  0  0  0  0
   -6.6508   22.3855    1.7864 O   0  0  0  0  0  0  0  0  0  0  0  0
   -5.7835   23.4369    3.5630 N   0  0  0  0  0  0  0  0  0  0  0  0
   -4.8515   24.3217    4.1230 C   0  0  0  0  0  0  0  0  0  0  0  0
   -3.6457   23.8416    4.6289 C   0  0  0  0  0  0  0  0  0  0  0  0
   -2.7382   24.7203    5.2134 C   0  0  0  0  0  0  0  0  0  0  0  0
   -3.0344   26.0856    5.2922 C   0  0  0  0  0  0  0  0  0  0  0  0
   -4.2275   26.6015    4.7749 C   0  0  0  0  0  0  0  0  0  0  0  0
   -4.6133   27.9383    4.8888 N   0  0  0  0  0  0  0  0  0  0  0  0
   -3.6517   29.0245    5.0802 C   0  0  2  0  0  0  0  0  0  0  0  0
   -4.4152   30.2288    5.6350 C   0  0  0  0  0  0  0  0  0  0  0  0
   -2.9318   29.2757    3.7754 C   0  0  0  0  0  0  0  0  0  0  0  0
   -2.5640   30.6468    3.2551 C   0  0  0  0  0  0  0  0  0  0  0  0
   -3.6349   29.8471    2.5649 C   0  0  0  0  0  0  0  0  0  0  0  0
   -5.1433   25.6872    4.2291 C   0  0  0  0  0  0  0  0  0  0  0  0
  1  2  1  0
  2  3  1  0
  2  4  2  3
  4  5  1  0
  5  6  2  0
  6  7  1  0
  7  8  2  0
  8  9  1  0
  9 10  1  0
 10 11  1  0
 11 12  1  6
 11 13  1  0
 13 14  1  0
 14 15  1  0
  9 16  2  0
 16  5  1  0
 15 13  1  0
M  END
>  <Energy>  (1359) 
0.83729570637082951

>  <Energy_Delta>  (1359) 
2.8774965044872767

>  <std_smi>  (1359) 
CC(=O)Nc1cccc(NC(C)C2CC2)c1

>  <enum_smi>  (1359) 
CC(O)=Nc1cccc(NC(C)C2CC2)c1

>  <enum_code>  (1359) 
T

>  <parent_uuid>  (1359) 
80177037-97d9-4251-9583-a2fb747585df

>  <o3da_score>  (1359) 
85.664737089097429

>  <o3da_score_rel>  (1359) 
0.34104376508494738

>  <o3da_align>  (1359) 
0.24203411760946836

>  <RMSD>  (1359) 
7.5099203274945928e-05

>  <CONVERGED>  (1359) 
0

>  <ENERGY>  (1359) 
0.83729570365589145

$$$$
f78f5899-7f06-4656-9911-0de2591275d6
     RDKit          3D

 16 17  0  0  0  0  0  0  0  0999 V2000
   -7.5658   22.4192    2.1940 C   0  0  0  0  0  0  0  0  0  0  0  0
   -6.4695   23.3260    2.6458 C   0  0  0  0  0  0  0  0  0  0  0  0
   -5.8711   23.9640    1.6210 O   0  0  0  0  0  0  0  0  0  0  0  0
   -6.1503   23.4638    3.8893 N   0  0  0  0  0  0  0  0  0  0  0  0
   -5.1153   24.3293    4.2605 C   0  0  0  0  0  0  0  0  0  0  0  0
   -3.8142   23.8501    4.3895 C   0  0  0  0  0  0  0  0  0  0  0  0
   -2.7907   24.7143    4.7669 C   0  0  0  0  0  0  0  0  0  0  0  0
   -3.0671   26.0636    5.0139 C   0  0  0  0  0  0  0  0  0  0  0  0
   -4.3604   26.5789    4.8740 C   0  0  0  0  0  0  0  0  0  0  0  0
   -4.7093   27.8929    5.1728 N   0  0  0  0  0  0  0  0  0  0  0  0
   -3.7390   28.9797    5.2566 C   0  0  1  0  0  0  0  0  0  0  0  0
   -3.2585   29.3844    3.8636 C   0  0  0  0  0  0  0  0  0  0  0  0
   -4.4297   30.1465    5.9238 C   0  0  0  0  0  0  0  0  0  0  0  0
   -4.6394   30.1503    7.4184 C   0  0  0  0  0  0  0  0  0  0  0  0
   -3.6555   31.1028    6.7982 C   0  0  0  0  0  0  0  0  0  0  0  0
   -5.3803   25.6776    4.5296 C   0  0  0  0  0  0  0  0  0  0  0  0
  1  2  1  0
  2  3  1  0
  2  4  2  3
  4  5  1  0
  5  6  2  0
  6  7  1  0
  7  8  2  0
  8  9  1  0
  9 10  1  0
 10 11  1  0
 11 12  1  6
 11 13  1  0
 13 14  1  0
 14 15  1  0
  9 16  2  0
 16  5  1  0
 15 13  1  0
M  END
>  <Energy>  (1360) 
0.97460553314850895

>  <Energy_Delta>  (1360) 
3.014806331264956

>  <std_smi>  (1360) 
CC(=O)Nc1cccc(NC(C)C2CC2)c1

>  <enum_smi>  (1360) 
CC(O)=Nc1cccc(NC(C)C2CC2)c1

>  <enum_code>  (1360) 
T

>  <parent_uuid>  (1360) 
80177037-97d9-4251-9583-a2fb747585df

>  <o3da_score>  (1360) 
81.822041935851288

>  <o3da_score_rel>  (1360) 
0.32574543735210559

>  <o3da_align>  (1360) 
0.45860666362678543

>  <RMSD>  (1360) 
0.30753168066455006

>  <CONVERGED>  (1360) 
0

>  <ENERGY>  (1360) 
1.4700523062955266

$$$$
f78f5899-7f06-4656-9911-0de2591275d6
     RDKit          3D

 16 17  0  0  0  0  0  0  0  0999 V2000
   -6.9885   22.1316    2.0220 C   0  0  0  0  0  0  0  0  0  0  0  0
   -5.9701   23.0878    2.5482 C   0  0  0  0  0  0  0  0  0  0  0  0
   -5.1837   23.5907    1.5766 O   0  0  0  0  0  0  0  0  0  0  0  0
   -5.8758   23.3809    3.8024 N   0  0  0  0  0  0  0  0  0  0  0  0
   -4.9011   24.2831    4.2431 C   0  0  0  0  0  0  0  0  0  0  0  0
   -3.6679   23.8160    4.6900 C   0  0  0  0  0  0  0  0  0  0  0  0
   -2.6892   24.7192    5.0933 C   0  0  0  0  0  0  0  0  0  0  0  0
   -2.9514   26.0934    5.0724 C   0  0  0  0  0  0  0  0  0  0  0  0
   -4.2021   26.5894    4.6892 C   0  0  0  0  0  0  0  0  0  0  0  0
   -4.5029   27.9494    4.5894 N   0  0  0  0  0  0  0  0  0  0  0  0
   -3.8375   28.9557    5.4172 C   0  0  1  0  0  0  0  0  0  0  0  0
   -4.0076   30.3142    4.7312 C   0  0  0  0  0  0  0  0  0  0  0  0
   -4.4775   28.9863    6.7830 C   0  0  0  0  0  0  0  0  0  0  0  0
   -3.7472   29.5939    7.9569 C   0  0  0  0  0  0  0  0  0  0  0  0
   -3.9745   28.1099    7.9045 C   0  0  0  0  0  0  0  0  0  0  0  0
   -5.1574   25.6595    4.2482 C   0  0  0  0  0  0  0  0  0  0  0  0
  1  2  1  0
  2  3  1  0
  2  4  2  3
  4  5  1  0
  5  6  2  0
  6  7  1  0
  7  8  2  0
  8  9  1  0
  9 10  1  0
 10 11  1  0
 11 12  1  6
 11 13  1  0
 13 14  1  0
 14 15  1  0
  9 16  2  0
 16  5  1  0
 15 13  1  0
M  END
>  <Energy>  (1361) 
1.3359054864769444

>  <Energy_Delta>  (1361) 
3.3761062845933916

>  <std_smi>  (1361) 
CC(=O)Nc1cccc(NC(C)C2CC2)c1

>  <enum_smi>  (1361) 
CC(O)=Nc1cccc(NC(C)C2CC2)c1

>  <enum_code>  (1361) 
T

>  <parent_uuid>  (1361) 
80177037-97d9-4251-9583-a2fb747585df

>  <o3da_score>  (1361) 
72.901986609566833

>  <o3da_score_rel>  (1361) 
0.29023340105089029

>  <o3da_align>  (1361) 
0.21639305452334798

>  <RMSD>  (1361) 
7.0405777449992718e-05

>  <CONVERGED>  (1361) 
0

>  <ENERGY>  (1361) 
1.3359054865500191

$$$$
f78f5899-7f06-4656-9911-0de2591275d6
     RDKit          3D

 16 17  0  0  0  0  0  0  0  0999 V2000
   -7.6941   21.8862    3.9481 C   0  0  0  0  0  0  0  0  0  0  0  0
   -6.6698   22.8575    4.4338 C   0  0  0  0  0  0  0  0  0  0  0  0
   -6.7643   23.0884    5.7577 O   0  0  0  0  0  0  0  0  0  0  0  0
   -5.8004   23.4002    3.6480 N   0  0  0  0  0  0  0  0  0  0  0  0
   -4.8603   24.3040    4.1557 C   0  0  0  0  0  0  0  0  0  0  0  0
   -3.6027   23.8556    4.5506 C   0  0  0  0  0  0  0  0  0  0  0  0
   -2.6842   24.7523    5.0881 C   0  0  0  0  0  0  0  0  0  0  0  0
   -3.0148   26.1064    5.2100 C   0  0  0  0  0  0  0  0  0  0  0  0
   -4.2461   26.5975    4.7632 C   0  0  0  0  0  0  0  0  0  0  0  0
   -4.6561   27.9240    4.9138 N   0  0  0  0  0  0  0  0  0  0  0  0
   -3.7021   29.0323    4.9584 C   0  0  2  0  0  0  0  0  0  0  0  0
   -4.3996   30.2249    5.6191 C   0  0  0  0  0  0  0  0  0  0  0  0
   -3.2858   29.3942    3.5543 C   0  0  0  0  0  0  0  0  0  0  0  0
   -2.0207   30.1819    3.3102 C   0  0  0  0  0  0  0  0  0  0  0  0
   -2.0951   28.7398    2.8962 C   0  0  0  0  0  0  0  0  0  0  0  0
   -5.1694   25.6653    4.2630 C   0  0  0  0  0  0  0  0  0  0  0  0
  1  2  1  0
  2  3  1  0
  2  4  2  3
  4  5  1  0
  5  6  2  0
  6  7  1  0
  7  8  2  0
  8  9  1  0
  9 10  1  0
 10 11  1  0
 11 12  1  6
 11 13  1  0
 13 14  1  0
 14 15  1  0
  9 16  2  0
 16  5  1  0
 15 13  1  0
M  END
>  <Energy>  (1362) 
1.335905486820441

>  <Energy_Delta>  (1362) 
3.3761062849368884

>  <std_smi>  (1362) 
CC(=O)Nc1cccc(NC(C)C2CC2)c1

>  <enum_smi>  (1362) 
CC(O)=Nc1cccc(NC(C)C2CC2)c1

>  <enum_code>  (1362) 
T

>  <parent_uuid>  (1362) 
80177037-97d9-4251-9583-a2fb747585df

>  <o3da_score>  (1362) 
91.615145353275423

>  <o3da_score_rel>  (1362) 
0.36473320495443751

>  <o3da_align>  (1362) 
0.28071265646305149

>  <RMSD>  (1362) 
6.7363269870592709e-05

>  <CONVERGED>  (1362) 
0

>  <ENERGY>  (1362) 
1.3359054864474287

$$$$
f78f5899-7f06-4656-9911-0de2591275d6
     RDKit          3D

 16 17  0  0  0  0  0  0  0  0999 V2000
   -7.5866   23.7704    5.1114 C   0  0  0  0  0  0  0  0  0  0  0  0
   -7.0257   23.3017    3.8088 C   0  0  0  0  0  0  0  0  0  0  0  0
   -7.8615   22.5255    3.1047 O   0  0  0  0  0  0  0  0  0  0  0  0
   -5.8730   23.5397    3.2819 N   0  0  0  0  0  0  0  0  0  0  0  0
   -4.9749   24.3508    3.9893 C   0  0  0  0  0  0  0  0  0  0  0  0
   -4.0381   23.7776    4.8463 C   0  0  0  0  0  0  0  0  0  0  0  0
   -3.1273   24.5855    5.5210 C   0  0  0  0  0  0  0  0  0  0  0  0
   -3.1517   25.9727    5.3401 C   0  0  0  0  0  0  0  0  0  0  0  0
   -4.0919   26.5801    4.5007 C   0  0  0  0  0  0  0  0  0  0  0  0
   -4.1193   27.9451    4.2247 N   0  0  0  0  0  0  0  0  0  0  0  0
   -3.5025   28.9502    5.0882 C   0  0  2  0  0  0  0  0  0  0  0  0
   -4.3213   29.1223    6.3671 C   0  0  0  0  0  0  0  0  0  0  0  0
   -3.3616   30.1998    4.2472 C   0  0  0  0  0  0  0  0  0  0  0  0
   -3.4223   31.6056    4.7982 C   0  0  0  0  0  0  0  0  0  0  0  0
   -4.5310   31.0985    3.9154 C   0  0  0  0  0  0  0  0  0  0  0  0
   -4.9727   25.7387    3.8021 C   0  0  0  0  0  0  0  0  0  0  0  0
  1  2  1  0
  2  3  1  0
  2  4  2  3
  4  5  1  0
  5  6  2  0
  6  7  1  0
  7  8  2  0
  8  9  1  0
  9 10  1  0
 10 11  1  0
 11 12  1  1
 11 13  1  0
 13 14  1  0
 14 15  1  0
  9 16  2  0
 16  5  1  0
 15 13  1  0
M  END
>  <Energy>  (1363) 
1.3475661218741162

>  <Energy_Delta>  (1363) 
3.3877669199905633

>  <std_smi>  (1363) 
CC(=O)Nc1cccc(NC(C)C2CC2)c1

>  <enum_smi>  (1363) 
CC(O)=Nc1cccc(NC(C)C2CC2)c1

>  <enum_code>  (1363) 
T

>  <parent_uuid>  (1363) 
80177037-97d9-4251-9583-a2fb747585df

>  <o3da_score>  (1363) 
81.089665775112096

>  <o3da_score_rel>  (1363) 
0.32282974144496501

>  <o3da_align>  (1363) 
0.49898810860013326

>  <RMSD>  (1363) 
0.27987067196589699

>  <CONVERGED>  (1363) 
0

>  <ENERGY>  (1363) 
0.68308406095519891

$$$$
f78f5899-7f06-4656-9911-0de2591275d6
     RDKit          3D

 16 17  0  0  0  0  0  0  0  0999 V2000
   -5.8228   23.9562    1.5352 C   0  0  0  0  0  0  0  0  0  0  0  0
   -6.4234   23.3091    2.7401 C   0  0  0  0  0  0  0  0  0  0  0  0
   -7.4280   22.4667    2.4610 O   0  0  0  0  0  0  0  0  0  0  0  0
   -6.1139   23.4504    3.9839 N   0  0  0  0  0  0  0  0  0  0  0  0
   -5.0700   24.3265    4.3125 C   0  0  0  0  0  0  0  0  0  0  0  0
   -3.7675   23.8489    4.4380 C   0  0  0  0  0  0  0  0  0  0  0  0
   -2.7403   24.7172    4.7966 C   0  0  0  0  0  0  0  0  0  0  0  0
   -3.0142   26.0692    5.0306 C   0  0  0  0  0  0  0  0  0  0  0  0
   -4.3085   26.5829    4.8948 C   0  0  0  0  0  0  0  0  0  0  0  0
   -4.6553   27.9006    5.1842 N   0  0  0  0  0  0  0  0  0  0  0  0
   -3.6877   28.9955    5.2171 C   0  0  1  0  0  0  0  0  0  0  0  0
   -3.2438   29.3513    3.7986 C   0  0  0  0  0  0  0  0  0  0  0  0
   -4.3503   30.1215    5.9800 C   0  0  0  0  0  0  0  0  0  0  0  0
   -4.0882   31.5880    5.7275 C   0  0  0  0  0  0  0  0  0  0  0  0
   -5.4267   30.9952    5.3775 C   0  0  0  0  0  0  0  0  0  0  0  0
   -5.3319   25.6777    4.5710 C   0  0  0  0  0  0  0  0  0  0  0  0
  1  2  1  0
  2  3  1  0
  2  4  2  3
  4  5  1  0
  5  6  2  0
  6  7  1  0
  7  8  2  0
  8  9  1  0
  9 10  1  0
 10 11  1  0
 11 12  1  6
 11 13  1  0
 13 14  1  0
 14 15  1  0
  9 16  2  0
 16  5  1  0
 15 13  1  0
M  END
>  <Energy>  (1364) 
1.347566122426763

>  <Energy_Delta>  (1364) 
3.3877669205432102

>  <std_smi>  (1364) 
CC(=O)Nc1cccc(NC(C)C2CC2)c1

>  <enum_smi>  (1364) 
CC(O)=Nc1cccc(NC(C)C2CC2)c1

>  <enum_code>  (1364) 
T

>  <parent_uuid>  (1364) 
80177037-97d9-4251-9583-a2fb747585df

>  <o3da_score>  (1364) 
81.67710687692859

>  <o3da_score_rel>  (1364) 
0.32516842982406757

>  <o3da_align>  (1364) 
0.45782981809989759

>  <RMSD>  (1364) 
0.27986376907482113

>  <CONVERGED>  (1364) 
0

>  <ENERGY>  (1364) 
0.68308406095694718

$$$$
f78f5899-7f06-4656-9911-0de2591275d6
     RDKit          3D

 16 17  0  0  0  0  0  0  0  0999 V2000
    0.9167   24.0220    5.9858 C   0  0  0  0  0  0  0  0  0  0  0  0
   -0.3842   24.4308    5.3785 C   0  0  0  0  0  0  0  0  0  0  0  0
   -0.2681   24.7469    4.0740 O   0  0  0  0  0  0  0  0  0  0  0  0
   -1.4845   24.4671    6.0539 N   0  0  0  0  0  0  0  0  0  0  0  0
   -2.6778   24.8566    5.4347 C   0  0  0  0  0  0  0  0  0  0  0  0
   -3.5324   23.8931    4.9026 C   0  0  0  0  0  0  0  0  0  0  0  0
   -4.7010   24.2829    4.2571 C   0  0  0  0  0  0  0  0  0  0  0  0
   -5.0236   25.6393    4.1650 C   0  0  0  0  0  0  0  0  0  0  0  0
   -4.2128   26.6290    4.7424 C   0  0  0  0  0  0  0  0  0  0  0  0
   -4.5700   27.9647    4.5564 N   0  0  0  0  0  0  0  0  0  0  0  0
   -4.0062   29.0492    5.3602 C   0  0  2  0  0  0  0  0  0  0  0  0
   -4.6011   29.0315    6.7696 C   0  0  0  0  0  0  0  0  0  0  0  0
   -4.2642   30.3970    4.7151 C   0  0  0  0  0  0  0  0  0  0  0  0
   -4.3981   30.5700    3.2195 C   0  0  0  0  0  0  0  0  0  0  0  0
   -5.5925   30.7910    4.1092 C   0  0  0  0  0  0  0  0  0  0  0  0
   -3.0245   26.2125    5.3531 C   0  0  0  0  0  0  0  0  0  0  0  0
  1  2  1  0
  2  3  1  0
  2  4  2  3
  4  5  1  0
  5  6  2  0
  6  7  1  0
  7  8  2  0
  8  9  1  0
  9 10  1  0
 10 11  1  0
 11 12  1  1
 11 13  1  0
 13 14  1  0
 14 15  1  0
  9 16  2  0
 16  5  1  0
 15 13  1  0
M  END
>  <Energy>  (1365) 
2.0936236479389461

>  <Energy_Delta>  (1365) 
4.1338244460553932

>  <std_smi>  (1365) 
CC(=O)Nc1cccc(NC(C)C2CC2)c1

>  <enum_smi>  (1365) 
CC(O)=Nc1cccc(NC(C)C2CC2)c1

>  <enum_code>  (1365) 
T

>  <parent_uuid>  (1365) 
80177037-97d9-4251-9583-a2fb747585df

>  <o3da_score>  (1365) 
76.869704833894176

>  <o3da_score_rel>  (1365) 
0.30602946379504337

>  <o3da_align>  (1365) 
0.42050682360398844

>  <RMSD>  (1365) 
6.2605650042871e-05

>  <CONVERGED>  (1365) 
0

>  <ENERGY>  (1365) 
2.0936236478950461

$$$$
f78f5899-7f06-4656-9911-0de2591275d6
     RDKit          3D

 16 17  0  0  0  0  0  0  0  0999 V2000
    0.5798   23.9331    6.8575 C   0  0  0  0  0  0  0  0  0  0  0  0
   -0.8162   24.3270    6.5049 C   0  0  0  0  0  0  0  0  0  0  0  0
   -1.6101   24.4382    7.5876 O   0  0  0  0  0  0  0  0  0  0  0  0
   -1.1929   24.5313    5.2866 N   0  0  0  0  0  0  0  0  0  0  0  0
   -2.5153   24.8979    5.0109 C   0  0  0  0  0  0  0  0  0  0  0  0
   -3.4557   23.9209    4.6899 C   0  0  0  0  0  0  0  0  0  0  0  0
   -4.7771   24.2823    4.4499 C   0  0  0  0  0  0  0  0  0  0  0  0
   -5.1506   25.6273    4.5102 C   0  0  0  0  0  0  0  0  0  0  0  0
   -4.2144   26.6396    4.7731 C   0  0  0  0  0  0  0  0  0  0  0  0
   -4.6748   27.9524    4.8763 N   0  0  0  0  0  0  0  0  0  0  0  0
   -3.7782   29.1071    4.8239 C   0  0  1  0  0  0  0  0  0  0  0  0
   -3.2882   29.3358    3.3927 C   0  0  0  0  0  0  0  0  0  0  0  0
   -4.4693   30.3577    5.3318 C   0  0  0  0  0  0  0  0  0  0  0  0
   -5.8840   30.7390    4.9577 C   0  0  0  0  0  0  0  0  0  0  0  0
   -5.5691   30.3148    6.3677 C   0  0  0  0  0  0  0  0  0  0  0  0
   -2.8999   26.2455    5.0475 C   0  0  0  0  0  0  0  0  0  0  0  0
  1  2  1  0
  2  3  1  0
  2  4  2  3
  4  5  1  0
  5  6  2  0
  6  7  1  0
  7  8  2  0
  8  9  1  0
  9 10  1  0
 10 11  1  0
 11 12  1  6
 11 13  1  0
 13 14  1  0
 14 15  1  0
  9 16  2  0
 16  5  1  0
 15 13  1  0
M  END
>  <Energy>  (1366) 
2.093623648402688

>  <Energy_Delta>  (1366) 
4.1338244465191352

>  <std_smi>  (1366) 
CC(=O)Nc1cccc(NC(C)C2CC2)c1

>  <enum_smi>  (1366) 
CC(O)=Nc1cccc(NC(C)C2CC2)c1

>  <enum_code>  (1366) 
T

>  <parent_uuid>  (1366) 
80177037-97d9-4251-9583-a2fb747585df

>  <o3da_score>  (1366) 
83.056068037787469

>  <o3da_score_rel>  (1366) 
0.33065827456282038

>  <o3da_align>  (1366) 
0.41339786276640206

>  <RMSD>  (1366) 
6.9349895334998486e-05

>  <CONVERGED>  (1366) 
0

>  <ENERGY>  (1366) 
2.0936236478938182

$$$$
f78f5899-7f06-4656-9911-0de2591275d6
     RDKit          3D

 16 17  0  0  0  0  0  0  0  0999 V2000
    0.6197   23.9735    6.8300 C   0  0  0  0  0  0  0  0  0  0  0  0
   -0.7828   24.3594    6.4945 C   0  0  0  0  0  0  0  0  0  0  0  0
   -1.5592   24.4851    7.5883 O   0  0  0  0  0  0  0  0  0  0  0  0
   -1.1798   24.5448    5.2796 N   0  0  0  0  0  0  0  0  0  0  0  0
   -2.5073   24.9047    5.0202 C   0  0  0  0  0  0  0  0  0  0  0  0
   -3.4506   23.9212    4.7291 C   0  0  0  0  0  0  0  0  0  0  0  0
   -4.7766   24.2764    4.5054 C   0  0  0  0  0  0  0  0  0  0  0  0
   -5.1520   25.6214    4.5519 C   0  0  0  0  0  0  0  0  0  0  0  0
   -4.2139   26.6393    4.7844 C   0  0  0  0  0  0  0  0  0  0  0  0
   -4.6754   27.9527    4.8757 N   0  0  0  0  0  0  0  0  0  0  0  0
   -3.7823   29.1082    4.7915 C   0  0  1  0  0  0  0  0  0  0  0  0
   -3.3163   29.3165    3.3492 C   0  0  0  0  0  0  0  0  0  0  0  0
   -4.4678   30.3648    5.2920 C   0  0  0  0  0  0  0  0  0  0  0  0
   -5.5505   30.3351    6.3463 C   0  0  0  0  0  0  0  0  0  0  0  0
   -5.8893   30.7377    4.9355 C   0  0  0  0  0  0  0  0  0  0  0  0
   -2.8942   26.2519    5.0431 C   0  0  0  0  0  0  0  0  0  0  0  0
  1  2  1  0
  2  3  1  0
  2  4  2  3
  4  5  1  0
  5  6  2  0
  6  7  1  0
  7  8  2  0
  8  9  1  0
  9 10  1  0
 10 11  1  0
 11 12  1  6
 11 13  1  0
 13 14  1  0
 14 15  1  0
  9 16  2  0
 16  5  1  0
 15 13  1  0
M  END
>  <Energy>  (1367) 
2.0936236504832282

>  <Energy_Delta>  (1367) 
4.1338244485996753

>  <std_smi>  (1367) 
CC(=O)Nc1cccc(NC(C)C2CC2)c1

>  <enum_smi>  (1367) 
CC(O)=Nc1cccc(NC(C)C2CC2)c1

>  <enum_code>  (1367) 
T

>  <parent_uuid>  (1367) 
80177037-97d9-4251-9583-a2fb747585df

>  <o3da_score>  (1367) 
82.822017629117369

>  <o3da_score_rel>  (1367) 
0.32972648587934489

>  <o3da_align>  (1367) 
0.41923905775962345

>  <RMSD>  (1367) 
6.0204350010946572e-05

>  <CONVERGED>  (1367) 
0

>  <ENERGY>  (1367) 
2.0936236479003805

$$$$
f78f5899-7f06-4656-9911-0de2591275d6
     RDKit          3D

 16 17  0  0  0  0  0  0  0  0999 V2000
   -7.7369   21.9087    4.0340 C   0  0  0  0  0  0  0  0  0  0  0  0
   -6.7053   22.8838    4.4960 C   0  0  0  0  0  0  0  0  0  0  0  0
   -6.8146   23.1677    5.8084 O   0  0  0  0  0  0  0  0  0  0  0  0
   -5.8170   23.3827    3.7022 N   0  0  0  0  0  0  0  0  0  0  0  0
   -4.8708   24.2922    4.1874 C   0  0  0  0  0  0  0  0  0  0  0  0
   -3.6221   23.8428    4.6086 C   0  0  0  0  0  0  0  0  0  0  0  0
   -2.6965   24.7465    5.1219 C   0  0  0  0  0  0  0  0  0  0  0  0
   -3.0113   26.1080    5.1952 C   0  0  0  0  0  0  0  0  0  0  0  0
   -4.2346   26.5972    4.7246 C   0  0  0  0  0  0  0  0  0  0  0  0
   -4.6340   27.9299    4.8265 N   0  0  0  0  0  0  0  0  0  0  0  0
   -3.6833   29.0282    4.9948 C   0  0  1  0  0  0  0  0  0  0  0  0
   -2.9435   29.2969    3.6828 C   0  0  0  0  0  0  0  0  0  0  0  0
   -4.3851   30.2922    5.4520 C   0  0  0  0  0  0  0  0  0  0  0  0
   -5.6473   30.2657    6.2832 C   0  0  0  0  0  0  0  0  0  0  0  0
   -5.6927   30.7774    4.8679 C   0  0  0  0  0  0  0  0  0  0  0  0
   -5.1640   25.6599    4.2457 C   0  0  0  0  0  0  0  0  0  0  0  0
  1  2  1  0
  2  3  1  0
  2  4  2  3
  4  5  1  0
  5  6  2  0
  6  7  1  0
  7  8  2  0
  8  9  1  0
  9 10  1  0
 10 11  1  0
 11 12  1  6
 11 13  1  0
 13 14  1  0
 14 15  1  0
  9 16  2  0
 16  5  1  0
 15 13  1  0
M  END
>  <Energy>  (1368) 
2.2546470754143439

>  <Energy_Delta>  (1368) 
4.2948478735307916

>  <std_smi>  (1368) 
CC(=O)Nc1cccc(NC(C)C2CC2)c1

>  <enum_smi>  (1368) 
CC(O)=Nc1cccc(NC(C)C2CC2)c1

>  <enum_code>  (1368) 
T

>  <parent_uuid>  (1368) 
80177037-97d9-4251-9583-a2fb747585df

>  <o3da_score>  (1368) 
80.515078037348616

>  <o3da_score_rel>  (1368) 
0.32054222417569833

>  <o3da_align>  (1368) 
0.11769509719825057

>  <RMSD>  (1368) 
5.940499246457896e-05

>  <CONVERGED>  (1368) 
0

>  <ENERGY>  (1368) 
2.254647075333887

$$$$
f78f5899-7f06-4656-9911-0de2591275d6
     RDKit          3D

 16 17  0  0  0  0  0  0  0  0999 V2000
   -7.6630   22.4445    2.3731 C   0  0  0  0  0  0  0  0  0  0  0  0
   -6.5284   23.3369    2.7533 C   0  0  0  0  0  0  0  0  0  0  0  0
   -5.9176   23.8798    1.6822 O   0  0  0  0  0  0  0  0  0  0  0  0
   -6.1913   23.5456    3.9824 N   0  0  0  0  0  0  0  0  0  0  0  0
   -5.1177   24.3907    4.2841 C   0  0  0  0  0  0  0  0  0  0  0  0
   -3.8438   23.8613    4.4727 C   0  0  0  0  0  0  0  0  0  0  0  0
   -2.7727   24.7090    4.7392 C   0  0  0  0  0  0  0  0  0  0  0  0
   -2.9783   26.0894    4.8389 C   0  0  0  0  0  0  0  0  0  0  0  0
   -4.2563   26.6446    4.7136 C   0  0  0  0  0  0  0  0  0  0  0  0
   -4.5187   28.0144    4.7393 N   0  0  0  0  0  0  0  0  0  0  0  0
   -3.6069   28.9815    5.3492 C   0  0  2  0  0  0  0  0  0  0  0  0
   -3.6751   28.8877    6.8748 C   0  0  0  0  0  0  0  0  0  0  0  0
   -3.9372   30.3948    4.9103 C   0  0  0  0  0  0  0  0  0  0  0  0
   -4.5632   30.7042    3.5698 C   0  0  0  0  0  0  0  0  0  0  0  0
   -5.3471   30.9361    4.8342 C   0  0  0  0  0  0  0  0  0  0  0  0
   -5.3128   25.7715    4.4087 C   0  0  0  0  0  0  0  0  0  0  0  0
  1  2  1  0
  2  3  1  0
  2  4  2  3
  4  5  1  0
  5  6  2  0
  6  7  1  0
  7  8  2  0
  8  9  1  0
  9 10  1  0
 10 11  1  0
 11 12  1  1
 11 13  1  0
 13 14  1  0
 14 15  1  0
  9 16  2  0
 16  5  1  0
 15 13  1  0
M  END
>  <Energy>  (1369) 
2.2546470763019029

>  <Energy_Delta>  (1369) 
4.29484787441835

>  <std_smi>  (1369) 
CC(=O)Nc1cccc(NC(C)C2CC2)c1

>  <enum_smi>  (1369) 
CC(O)=Nc1cccc(NC(C)C2CC2)c1

>  <enum_code>  (1369) 
T

>  <parent_uuid>  (1369) 
80177037-97d9-4251-9583-a2fb747585df

>  <o3da_score>  (1369) 
77.507221854440374

>  <o3da_score_rel>  (1369) 
0.30856751168243352

>  <o3da_align>  (1369) 
0.40768972050791463

>  <RMSD>  (1369) 
7.7151161770842118e-05

>  <CONVERGED>  (1369) 
0

>  <ENERGY>  (1369) 
2.254647075355602

$$$$
f78f5899-7f06-4656-9911-0de2591275d6
     RDKit          3D

 16 17  0  0  0  0  0  0  0  0999 V2000
   -7.6630   22.4445    2.3731 C   0  0  0  0  0  0  0  0  0  0  0  0
   -6.5283   23.3369    2.7533 C   0  0  0  0  0  0  0  0  0  0  0  0
   -5.9175   23.8798    1.6822 O   0  0  0  0  0  0  0  0  0  0  0  0
   -6.1913   23.5456    3.9824 N   0  0  0  0  0  0  0  0  0  0  0  0
   -5.1177   24.3907    4.2841 C   0  0  0  0  0  0  0  0  0  0  0  0
   -3.8438   23.8613    4.4727 C   0  0  0  0  0  0  0  0  0  0  0  0
   -2.7727   24.7090    4.7392 C   0  0  0  0  0  0  0  0  0  0  0  0
   -2.9783   26.0894    4.8390 C   0  0  0  0  0  0  0  0  0  0  0  0
   -4.2563   26.6446    4.7136 C   0  0  0  0  0  0  0  0  0  0  0  0
   -4.5187   28.0144    4.7393 N   0  0  0  0  0  0  0  0  0  0  0  0
   -3.6070   28.9815    5.3492 C   0  0  2  0  0  0  0  0  0  0  0  0
   -3.6752   28.8878    6.8748 C   0  0  0  0  0  0  0  0  0  0  0  0
   -3.9372   30.3948    4.9103 C   0  0  0  0  0  0  0  0  0  0  0  0
   -5.3472   30.9361    4.8343 C   0  0  0  0  0  0  0  0  0  0  0  0
   -4.5633   30.7042    3.5698 C   0  0  0  0  0  0  0  0  0  0  0  0
   -5.3128   25.7715    4.4087 C   0  0  0  0  0  0  0  0  0  0  0  0
  1  2  1  0
  2  3  1  0
  2  4  2  3
  4  5  1  0
  5  6  2  0
  6  7  1  0
  7  8  2  0
  8  9  1  0
  9 10  1  0
 10 11  1  0
 11 12  1  1
 11 13  1  0
 13 14  1  0
 14 15  1  0
  9 16  2  0
 16  5  1  0
 15 13  1  0
M  END
>  <Energy>  (1370) 
2.2546470764503415

>  <Energy_Delta>  (1370) 
4.2948478745667886

>  <std_smi>  (1370) 
CC(=O)Nc1cccc(NC(C)C2CC2)c1

>  <enum_smi>  (1370) 
CC(O)=Nc1cccc(NC(C)C2CC2)c1

>  <enum_code>  (1370) 
T

>  <parent_uuid>  (1370) 
80177037-97d9-4251-9583-a2fb747585df

>  <o3da_score>  (1370) 
77.507302026447775

>  <o3da_score_rel>  (1370) 
0.30856783085884359

>  <o3da_align>  (1370) 
0.40768813084427402

>  <RMSD>  (1370) 
7.4037318749299927e-05

>  <CONVERGED>  (1370) 
0

>  <ENERGY>  (1370) 
2.2546470834339041

$$$$
f78f5899-7f06-4656-9911-0de2591275d6
     RDKit          3D

 16 17  0  0  0  0  0  0  0  0999 V2000
   -0.6395   24.4668    3.1029 C   0  0  0  0  0  0  0  0  0  0  0  0
   -0.5264   24.1789    4.5644 C   0  0  0  0  0  0  0  0  0  0  0  0
    0.6896   23.7606    4.9434 O   0  0  0  0  0  0  0  0  0  0  0  0
   -1.4182   24.2824    5.4904 N   0  0  0  0  0  0  0  0  0  0  0  0
   -2.6993   24.7247    5.1296 C   0  0  0  0  0  0  0  0  0  0  0  0
   -3.7022   23.7984    4.8526 C   0  0  0  0  0  0  0  0  0  0  0  0
   -4.9693   24.2396    4.4906 C   0  0  0  0  0  0  0  0  0  0  0  0
   -5.2342   25.6106    4.4295 C   0  0  0  0  0  0  0  0  0  0  0  0
   -4.2619   26.5721    4.7561 C   0  0  0  0  0  0  0  0  0  0  0  0
   -4.6059   27.9097    4.6111 N   0  0  0  0  0  0  0  0  0  0  0  0
   -3.8502   29.0861    5.0403 C   0  0  2  0  0  0  0  0  0  0  0  0
   -2.6064   29.3344    4.1955 C   0  0  0  0  0  0  0  0  0  0  0  0
   -3.5754   29.0695    6.5199 C   0  0  0  0  0  0  0  0  0  0  0  0
   -4.6998   29.2622    7.5094 C   0  0  0  0  0  0  0  0  0  0  0  0
   -3.6657   30.3385    7.3340 C   0  0  0  0  0  0  0  0  0  0  0  0
   -2.9901   26.0971    5.0842 C   0  0  0  0  0  0  0  0  0  0  0  0
  1  2  1  0
  2  3  1  0
  2  4  2  3
  4  5  1  0
  5  6  2  0
  6  7  1  0
  7  8  2  0
  8  9  1  0
  9 10  1  0
 10 11  1  0
 11 12  1  6
 11 13  1  0
 13 14  1  0
 14 15  1  0
  9 16  2  0
 16  5  1  0
 15 13  1  0
M  END
>  <Energy>  (1371) 
2.7641715055871323

>  <Energy_Delta>  (1371) 
4.8043723037035795

>  <std_smi>  (1371) 
CC(=O)Nc1cccc(NC(C)C2CC2)c1

>  <enum_smi>  (1371) 
CC(O)=Nc1cccc(NC(C)C2CC2)c1

>  <enum_code>  (1371) 
T

>  <parent_uuid>  (1371) 
80177037-97d9-4251-9583-a2fb747585df

>  <o3da_score>  (1371) 
77.536950097828964

>  <o3da_score_rel>  (1371) 
0.30868586413875471

>  <o3da_align>  (1371) 
0.33331354749635822

>  <RMSD>  (1371) 
5.6032931365027387e-05

>  <CONVERGED>  (1371) 
0

>  <ENERGY>  (1371) 
2.7641715033167547

$$$$
f78f5899-7f06-4656-9911-0de2591275d6
     RDKit          3D

 16 17  0  0  0  0  0  0  0  0999 V2000
   -7.9611   22.0420    4.2059 C   0  0  0  0  0  0  0  0  0  0  0  0
   -6.8816   22.9793    4.6352 C   0  0  0  0  0  0  0  0  0  0  0  0
   -7.0139   23.3670    5.9187 O   0  0  0  0  0  0  0  0  0  0  0  0
   -5.9360   23.3594    3.8423 N   0  0  0  0  0  0  0  0  0  0  0  0
   -4.9485   24.2420    4.2939 C   0  0  0  0  0  0  0  0  0  0  0  0
   -3.7615   23.7497    4.8303 C   0  0  0  0  0  0  0  0  0  0  0  0
   -2.7798   24.6330    5.2695 C   0  0  0  0  0  0  0  0  0  0  0  0
   -2.9853   26.0140    5.1756 C   0  0  0  0  0  0  0  0  0  0  0  0
   -4.1753   26.5390    4.6603 C   0  0  0  0  0  0  0  0  0  0  0  0
   -4.4103   27.8992    4.4745 N   0  0  0  0  0  0  0  0  0  0  0  0
   -3.6623   28.9436    5.1701 C   0  0  2  0  0  0  0  0  0  0  0  0
   -4.1127   29.0345    6.6292 C   0  0  0  0  0  0  0  0  0  0  0  0
   -3.8435   30.2893    4.4956 C   0  0  0  0  0  0  0  0  0  0  0  0
   -5.1792   30.8059    4.0100 C   0  0  0  0  0  0  0  0  0  0  0  0
   -4.1148   30.4263    3.0150 C   0  0  0  0  0  0  0  0  0  0  0  0
   -5.1322   25.6260    4.1885 C   0  0  0  0  0  0  0  0  0  0  0  0
  1  2  1  0
  2  3  1  0
  2  4  2  3
  4  5  1  0
  5  6  2  0
  6  7  1  0
  7  8  2  0
  8  9  1  0
  9 10  1  0
 10 11  1  0
 11 12  1  1
 11 13  1  0
 13 14  1  0
 14 15  1  0
  9 16  2  0
 16  5  1  0
 15 13  1  0
M  END
>  <Energy>  (1372) 
2.894640003158357

>  <Energy_Delta>  (1372) 
4.9348408012748042

>  <std_smi>  (1372) 
CC(=O)Nc1cccc(NC(C)C2CC2)c1

>  <enum_smi>  (1372) 
CC(O)=Nc1cccc(NC(C)C2CC2)c1

>  <enum_code>  (1372) 
T

>  <parent_uuid>  (1372) 
80177037-97d9-4251-9583-a2fb747585df

>  <o3da_score>  (1372) 
75.394641568808609

>  <o3da_score_rel>  (1372) 
0.30015702261612448

>  <o3da_align>  (1372) 
0.48202663254618938

>  <RMSD>  (1372) 
6.2845798819703634e-05

>  <CONVERGED>  (1372) 
0

>  <ENERGY>  (1372) 
2.8946400017977512

$$$$
f78f5899-7f06-4656-9911-0de2591275d6
     RDKit          3D

 16 17  0  0  0  0  0  0  0  0999 V2000
   -7.8023   21.9377    4.1800 C   0  0  0  0  0  0  0  0  0  0  0  0
   -6.7447   22.9008    4.6068 C   0  0  0  0  0  0  0  0  0  0  0  0
   -6.8174   23.2008    5.9182 O   0  0  0  0  0  0  0  0  0  0  0  0
   -5.8680   23.3775    3.7873 N   0  0  0  0  0  0  0  0  0  0  0  0
   -4.8982   24.2801    4.2379 C   0  0  0  0  0  0  0  0  0  0  0  0
   -3.6588   23.8171    4.6723 C   0  0  0  0  0  0  0  0  0  0  0  0
   -2.6955   24.7207    5.1109 C   0  0  0  0  0  0  0  0  0  0  0  0
   -2.9719   26.0925    5.1189 C   0  0  0  0  0  0  0  0  0  0  0  0
   -4.2146   26.5866    4.7078 C   0  0  0  0  0  0  0  0  0  0  0  0
   -4.5249   27.9418    4.6247 N   0  0  0  0  0  0  0  0  0  0  0  0
   -3.7869   28.9781    5.3426 C   0  0  2  0  0  0  0  0  0  0  0  0
   -4.1520   28.9550    6.8280 C   0  0  0  0  0  0  0  0  0  0  0  0
   -4.0725   30.3519    4.7685 C   0  0  0  0  0  0  0  0  0  0  0  0
   -4.4391   30.5664    3.3179 C   0  0  0  0  0  0  0  0  0  0  0  0
   -5.4582   30.8283    4.3949 C   0  0  0  0  0  0  0  0  0  0  0  0
   -5.1537   25.6567    4.2334 C   0  0  0  0  0  0  0  0  0  0  0  0
  1  2  1  0
  2  3  1  0
  2  4  2  3
  4  5  1  0
  5  6  2  0
  6  7  1  0
  7  8  2  0
  8  9  1  0
  9 10  1  0
 10 11  1  0
 11 12  1  1
 11 13  1  0
 13 14  1  0
 14 15  1  0
  9 16  2  0
 16  5  1  0
 15 13  1  0
M  END
>  <Energy>  (1373) 
2.8946400038734414

>  <Energy_Delta>  (1373) 
4.9348408019898891

>  <std_smi>  (1373) 
CC(=O)Nc1cccc(NC(C)C2CC2)c1

>  <enum_smi>  (1373) 
CC(O)=Nc1cccc(NC(C)C2CC2)c1

>  <enum_code>  (1373) 
T

>  <parent_uuid>  (1373) 
80177037-97d9-4251-9583-a2fb747585df

>  <o3da_score>  (1373) 
73.5228378839968

>  <o3da_score_rel>  (1373) 
0.29270510018152751

>  <o3da_align>  (1373) 
0.17864704775072621

>  <RMSD>  (1373) 
6.614815953773436e-05

>  <CONVERGED>  (1373) 
0

>  <ENERGY>  (1373) 
2.8946400017828049

$$$$
f78f5899-7f06-4656-9911-0de2591275d6
     RDKit          3D

 16 17  0  0  0  0  0  0  0  0999 V2000
   -0.4289   31.1253    0.4164 C   0  0  0  0  0  0  0  0  0  0  0  0
   -1.5112   30.9451    1.4286 C   0  0  0  0  0  0  0  0  0  0  0  0
   -2.7425   31.0474    0.8915 O   0  0  0  0  0  0  0  0  0  0  0  0
   -1.2643   30.7181    2.6758 N   0  0  0  0  0  0  0  0  0  0  0  0
   -2.3172   30.5577    3.5839 C   0  0  0  0  0  0  0  0  0  0  0  0
   -2.7824   31.6520    4.3106 C   0  0  0  0  0  0  0  0  0  0  0  0
   -3.8513   31.4989    5.1873 C   0  0  0  0  0  0  0  0  0  0  0  0
   -4.4396   30.2422    5.3516 C   0  0  0  0  0  0  0  0  0  0  0  0
   -3.9556   29.1101    4.6781 C   0  0  0  0  0  0  0  0  0  0  0  0
   -4.6304   27.9022    4.8471 N   0  0  0  0  0  0  0  0  0  0  0  0
   -4.0490   26.6107    4.4790 C   0  0  1  0  0  0  0  0  0  0  0  0
   -2.9445   26.2264    5.4632 C   0  0  0  0  0  0  0  0  0  0  0  0
   -5.2040   25.6363    4.4035 C   0  0  0  0  0  0  0  0  0  0  0  0
   -5.0931   24.1623    4.7170 C   0  0  0  0  0  0  0  0  0  0  0  0
   -5.8747   25.0660    5.6324 C   0  0  0  0  0  0  0  0  0  0  0  0
   -2.9037   29.2988    3.7744 C   0  0  0  0  0  0  0  0  0  0  0  0
  1  2  1  0
  2  3  1  0
  2  4  2  3
  4  5  1  0
  5  6  2  0
  6  7  1  0
  7  8  2  0
  8  9  1  0
  9 10  1  0
 10 11  1  0
 11 12  1  1
 11 13  1  0
 13 14  1  0
 14 15  1  0
  9 16  2  0
 16  5  1  0
 15 13  1  0
M  END
>  <Energy>  (1374) 
2.9493617139284618

>  <Energy_Delta>  (1374) 
4.989562512044909

>  <std_smi>  (1374) 
CC(=O)Nc1cccc(NC(C)C2CC2)c1

>  <enum_smi>  (1374) 
CC(O)=Nc1cccc(NC(C)C2CC2)c1

>  <enum_code>  (1374) 
T

>  <parent_uuid>  (1374) 
80177037-97d9-4251-9583-a2fb747585df

>  <o3da_score>  (1374) 
81.295919295698752

>  <o3da_score_rel>  (1374) 
0.32365086667820703

>  <o3da_align>  (1374) 
0.41555720439439159

>  <RMSD>  (1374) 
6.3040866001622565e-05

>  <CONVERGED>  (1374) 
0

>  <ENERGY>  (1374) 
2.9493617138263315

$$$$
f78f5899-7f06-4656-9911-0de2591275d6
     RDKit          3D

 16 17  0  0  0  0  0  0  0  0999 V2000
    0.8033   23.5237    5.1247 C   0  0  0  0  0  0  0  0  0  0  0  0
   -0.5498   24.0360    4.7571 C   0  0  0  0  0  0  0  0  0  0  0  0
   -0.6554   24.3195    3.4443 O   0  0  0  0  0  0  0  0  0  0  0  0
   -1.4964   24.1799    5.6237 N   0  0  0  0  0  0  0  0  0  0  0  0
   -2.7475   24.6651    5.2253 C   0  0  0  0  0  0  0  0  0  0  0  0
   -3.7668   23.7734    4.8976 C   0  0  0  0  0  0  0  0  0  0  0  0
   -5.0009   24.2556    4.4754 C   0  0  0  0  0  0  0  0  0  0  0  0
   -5.2180   25.6338    4.3999 C   0  0  0  0  0  0  0  0  0  0  0  0
   -4.2280   26.5572    4.7714 C   0  0  0  0  0  0  0  0  0  0  0  0
   -4.5057   27.9116    4.6158 N   0  0  0  0  0  0  0  0  0  0  0  0
   -3.6411   28.9840    5.0972 C   0  0  1  0  0  0  0  0  0  0  0  0
   -3.8598   30.2016    4.1914 C   0  0  0  0  0  0  0  0  0  0  0  0
   -3.8980   29.3685    6.5362 C   0  0  0  0  0  0  0  0  0  0  0  0
   -5.2878   29.6463    7.0651 C   0  0  0  0  0  0  0  0  0  0  0  0
   -4.5191   28.4574    7.5716 C   0  0  0  0  0  0  0  0  0  0  0  0
   -2.9865   26.0455    5.1641 C   0  0  0  0  0  0  0  0  0  0  0  0
  1  2  1  0
  2  3  1  0
  2  4  2  3
  4  5  1  0
  5  6  2  0
  6  7  1  0
  7  8  2  0
  8  9  1  0
  9 10  1  0
 10 11  1  0
 11 12  1  6
 11 13  1  0
 13 14  1  0
 14 15  1  0
  9 16  2  0
 16  5  1  0
 15 13  1  0
M  END
>  <Energy>  (1375) 
3.0929274220039633

>  <Energy_Delta>  (1375) 
5.13312822012041

>  <std_smi>  (1375) 
CC(=O)Nc1cccc(NC(C)C2CC2)c1

>  <enum_smi>  (1375) 
CC(O)=Nc1cccc(NC(C)C2CC2)c1

>  <enum_code>  (1375) 
T

>  <parent_uuid>  (1375) 
80177037-97d9-4251-9583-a2fb747585df

>  <o3da_score>  (1375) 
76.760063554891232

>  <o3da_score_rel>  (1375) 
0.30559296593290669

>  <o3da_align>  (1375) 
0.40689499255904588

>  <RMSD>  (1375) 
6.4967203551120447e-05

>  <CONVERGED>  (1375) 
0

>  <ENERGY>  (1375) 
3.092927421708052

$$$$
f78f5899-7f06-4656-9911-0de2591275d6
     RDKit          3D

 16 17  0  0  0  0  0  0  0  0999 V2000
   -7.7333   21.9057    4.0318 C   0  0  0  0  0  0  0  0  0  0  0  0
   -6.7027   22.8815    4.4945 C   0  0  0  0  0  0  0  0  0  0  0  0
   -6.8112   23.1631    5.8075 O   0  0  0  0  0  0  0  0  0  0  0  0
   -5.8158   23.3829    3.7007 N   0  0  0  0  0  0  0  0  0  0  0  0
   -4.8704   24.2930    4.1865 C   0  0  0  0  0  0  0  0  0  0  0  0
   -3.6206   23.8445    4.6057 C   0  0  0  0  0  0  0  0  0  0  0  0
   -2.6953   24.7485    5.1190 C   0  0  0  0  0  0  0  0  0  0  0  0
   -3.0117   26.1093    5.1942 C   0  0  0  0  0  0  0  0  0  0  0  0
   -4.2364   26.5977    4.7260 C   0  0  0  0  0  0  0  0  0  0  0  0
   -4.6343   27.9294    4.8304 N   0  0  0  0  0  0  0  0  0  0  0  0
   -3.6868   29.0325    4.9901 C   0  0  1  0  0  0  0  0  0  0  0  0
   -2.9313   29.2760    3.6840 C   0  0  0  0  0  0  0  0  0  0  0  0
   -4.4934   30.2108    5.4900 C   0  0  0  0  0  0  0  0  0  0  0  0
   -5.4008   31.0201    4.5918 C   0  0  0  0  0  0  0  0  0  0  0  0
   -4.1695   31.6541    5.1813 C   0  0  0  0  0  0  0  0  0  0  0  0
   -5.1652   25.6603    4.2470 C   0  0  0  0  0  0  0  0  0  0  0  0
  1  2  1  0
  2  3  1  0
  2  4  2  3
  4  5  1  0
  5  6  2  0
  6  7  1  0
  7  8  2  0
  8  9  1  0
  9 10  1  0
 10 11  1  0
 11 12  1  6
 11 13  1  0
 13 14  1  0
 14 15  1  0
  9 16  2  0
 16  5  1  0
 15 13  1  0
M  END
>  <Energy>  (1376) 
3.1008652785574338

>  <Energy_Delta>  (1376) 
5.1410660766738809

>  <std_smi>  (1376) 
CC(=O)Nc1cccc(NC(C)C2CC2)c1

>  <enum_smi>  (1376) 
CC(O)=Nc1cccc(NC(C)C2CC2)c1

>  <enum_code>  (1376) 
T

>  <parent_uuid>  (1376) 
80177037-97d9-4251-9583-a2fb747585df

>  <o3da_score>  (1376) 
80.466555161012707

>  <o3da_score_rel>  (1376) 
0.32034904755483112

>  <o3da_align>  (1376) 
0.12464569782558542

>  <RMSD>  (1376) 
6.9271983755279381e-05

>  <CONVERGED>  (1376) 
0

>  <ENERGY>  (1376) 
3.1008652784901614

$$$$
f78f5899-7f06-4656-9911-0de2591275d6
     RDKit          3D

 16 17  0  0  0  0  0  0  0  0999 V2000
   -7.6862   22.4524    2.3844 C   0  0  0  0  0  0  0  0  0  0  0  0
   -6.5485   23.3451    2.7546 C   0  0  0  0  0  0  0  0  0  0  0  0
   -5.9530   23.8953    1.6787 O   0  0  0  0  0  0  0  0  0  0  0  0
   -6.1957   23.5476    3.9804 N   0  0  0  0  0  0  0  0  0  0  0  0
   -5.1199   24.3932    4.2727 C   0  0  0  0  0  0  0  0  0  0  0  0
   -3.8425   23.8652    4.4416 C   0  0  0  0  0  0  0  0  0  0  0  0
   -2.7697   24.7133    4.6995 C   0  0  0  0  0  0  0  0  0  0  0  0
   -2.9769   26.0926    4.8104 C   0  0  0  0  0  0  0  0  0  0  0  0
   -4.2576   26.6459    4.7045 C   0  0  0  0  0  0  0  0  0  0  0  0
   -4.5197   28.0143    4.7432 N   0  0  0  0  0  0  0  0  0  0  0  0
   -3.6084   28.9818    5.3543 C   0  0  2  0  0  0  0  0  0  0  0  0
   -3.6388   28.8506    6.8768 C   0  0  0  0  0  0  0  0  0  0  0  0
   -4.0163   30.3381    4.8224 C   0  0  0  0  0  0  0  0  0  0  0  0
   -3.8752   31.6303    5.5930 C   0  0  0  0  0  0  0  0  0  0  0  0
   -5.2443   31.0721    5.3108 C   0  0  0  0  0  0  0  0  0  0  0  0
   -5.3162   25.7728    4.4082 C   0  0  0  0  0  0  0  0  0  0  0  0
  1  2  1  0
  2  3  1  0
  2  4  2  3
  4  5  1  0
  5  6  2  0
  6  7  1  0
  7  8  2  0
  8  9  1  0
  9 10  1  0
 10 11  1  0
 11 12  1  1
 11 13  1  0
 13 14  1  0
 14 15  1  0
  9 16  2  0
 16  5  1  0
 15 13  1  0
M  END
>  <Energy>  (1377) 
3.1008652793576412

>  <Energy_Delta>  (1377) 
5.1410660774740879

>  <std_smi>  (1377) 
CC(=O)Nc1cccc(NC(C)C2CC2)c1

>  <enum_smi>  (1377) 
CC(O)=Nc1cccc(NC(C)C2CC2)c1

>  <enum_code>  (1377) 
T

>  <parent_uuid>  (1377) 
80177037-97d9-4251-9583-a2fb747585df

>  <o3da_score>  (1377) 
77.35498740511342

>  <o3da_score_rel>  (1377) 
0.30796144422062482

>  <o3da_align>  (1377) 
0.41402485469454819

>  <RMSD>  (1377) 
5.877199324930081e-05

>  <CONVERGED>  (1377) 
0

>  <ENERGY>  (1377) 
3.1008652786317916

$$$$
f78f5899-7f06-4656-9911-0de2591275d6
     RDKit          3D

 16 17  0  0  0  0  0  0  0  0999 V2000
   -0.6007   22.9739    7.8672 C   0  0  0  0  0  0  0  0  0  0  0  0
   -1.7488   23.5600    7.1144 C   0  0  0  0  0  0  0  0  0  0  0  0
   -2.8987   23.5225    7.8155 O   0  0  0  0  0  0  0  0  0  0  0  0
   -1.6240   24.0413    5.9225 N   0  0  0  0  0  0  0  0  0  0  0  0
   -2.7337   24.5780    5.2603 C   0  0  0  0  0  0  0  0  0  0  0  0
   -3.4837   23.7834    4.3975 C   0  0  0  0  0  0  0  0  0  0  0  0
   -4.6034   24.3137    3.7638 C   0  0  0  0  0  0  0  0  0  0  0  0
   -4.9660   25.6482    3.9787 C   0  0  0  0  0  0  0  0  0  0  0  0
   -4.2030   26.4856    4.7989 C   0  0  0  0  0  0  0  0  0  0  0  0
   -4.5347   27.8026    5.1005 N   0  0  0  0  0  0  0  0  0  0  0  0
   -5.5550   28.5726    4.3974 C   0  0  1  0  0  0  0  0  0  0  0  0
   -6.1124   29.6125    5.3764 C   0  0  0  0  0  0  0  0  0  0  0  0
   -5.0409   29.2661    3.1566 C   0  0  0  0  0  0  0  0  0  0  0  0
   -3.7817   30.1045    3.1613 C   0  0  0  0  0  0  0  0  0  0  0  0
   -3.8269   28.8284    2.3673 C   0  0  0  0  0  0  0  0  0  0  0  0
   -3.0951   25.9174    5.4484 C   0  0  0  0  0  0  0  0  0  0  0  0
  1  2  1  0
  2  3  1  0
  2  4  2  3
  4  5  1  0
  5  6  2  0
  6  7  1  0
  7  8  2  0
  8  9  1  0
  9 10  1  0
 10 11  1  0
 11 12  1  1
 11 13  1  0
 13 14  1  0
 14 15  1  0
  9 16  2  0
 16  5  1  0
 15 13  1  0
M  END
>  <Energy>  (1378) 
3.1837526484588468

>  <Energy_Delta>  (1378) 
5.2239534465752939

>  <std_smi>  (1378) 
CC(=O)Nc1cccc(NC(C)C2CC2)c1

>  <enum_smi>  (1378) 
CC(O)=Nc1cccc(NC(C)C2CC2)c1

>  <enum_code>  (1378) 
T

>  <parent_uuid>  (1378) 
80177037-97d9-4251-9583-a2fb747585df

>  <o3da_score>  (1378) 
76.363501639334757

>  <o3da_score_rel>  (1378) 
0.30401419532826435

>  <o3da_align>  (1378) 
0.63404440444602939

>  <RMSD>  (1378) 
4.9108440095248809e-05

>  <CONVERGED>  (1378) 
0

>  <ENERGY>  (1378) 
3.1837526483134009

$$$$
f78f5899-7f06-4656-9911-0de2591275d6
     RDKit          3D

 16 17  0  0  0  0  0  0  0  0999 V2000
    0.7116   24.0554    6.6975 C   0  0  0  0  0  0  0  0  0  0  0  0
   -0.7094   24.4337    6.4408 C   0  0  0  0  0  0  0  0  0  0  0  0
   -1.3935   24.6739    7.5764 O   0  0  0  0  0  0  0  0  0  0  0  0
   -1.2026   24.5133    5.2501 N   0  0  0  0  0  0  0  0  0  0  0  0
   -2.5415   24.8773    5.0649 C   0  0  0  0  0  0  0  0  0  0  0  0
   -3.5225   23.8938    4.9556 C   0  0  0  0  0  0  0  0  0  0  0  0
   -4.8513   24.2576    4.7655 C   0  0  0  0  0  0  0  0  0  0  0  0
   -5.1970   25.6096    4.6909 C   0  0  0  0  0  0  0  0  0  0  0  0
   -4.2351   26.6238    4.8191 C   0  0  0  0  0  0  0  0  0  0  0  0
   -4.6481   27.9463    4.6638 N   0  0  0  0  0  0  0  0  0  0  0  0
   -3.8260   29.0908    5.0569 C   0  0  1  0  0  0  0  0  0  0  0  0
   -4.3486   30.3184    4.3079 C   0  0  0  0  0  0  0  0  0  0  0  0
   -3.8436   29.2120    6.5633 C   0  0  0  0  0  0  0  0  0  0  0  0
   -3.9255   30.5232    7.3120 C   0  0  0  0  0  0  0  0  0  0  0  0
   -5.0964   29.5792    7.3260 C   0  0  0  0  0  0  0  0  0  0  0  0
   -2.9004   26.2289    4.9652 C   0  0  0  0  0  0  0  0  0  0  0  0
  1  2  1  0
  2  3  1  0
  2  4  2  3
  4  5  1  0
  5  6  2  0
  6  7  1  0
  7  8  2  0
  8  9  1  0
  9 10  1  0
 10 11  1  0
 11 12  1  6
 11 13  1  0
 13 14  1  0
 14 15  1  0
  9 16  2  0
 16  5  1  0
 15 13  1  0
M  END
>  <Energy>  (1379) 
3.6281985471305584

>  <Energy_Delta>  (1379) 
5.6683993452470052

>  <std_smi>  (1379) 
CC(=O)Nc1cccc(NC(C)C2CC2)c1

>  <enum_smi>  (1379) 
CC(O)=Nc1cccc(NC(C)C2CC2)c1

>  <enum_code>  (1379) 
T

>  <parent_uuid>  (1379) 
80177037-97d9-4251-9583-a2fb747585df

>  <o3da_score>  (1379) 
76.537957868463963

>  <o3da_score_rel>  (1379) 
0.30470873092419887

>  <o3da_align>  (1379) 
0.44767857062371602

>  <RMSD>  (1379) 
6.2532062043682709e-05

>  <CONVERGED>  (1379) 
0

>  <ENERGY>  (1379) 
3.6281985451937198

$$$$
f78f5899-7f06-4656-9911-0de2591275d6
     RDKit          3D

 16 17  0  0  0  0  0  0  0  0999 V2000
   -7.6442   22.4865    2.2887 C   0  0  0  0  0  0  0  0  0  0  0  0
   -6.5243   23.3826    2.7020 C   0  0  0  0  0  0  0  0  0  0  0  0
   -5.9789   24.0420    1.6614 O   0  0  0  0  0  0  0  0  0  0  0  0
   -6.1404   23.4932    3.9299 N   0  0  0  0  0  0  0  0  0  0  0  0
   -5.0859   24.3499    4.2650 C   0  0  0  0  0  0  0  0  0  0  0  0
   -3.7810   23.8664    4.3180 C   0  0  0  0  0  0  0  0  0  0  0  0
   -2.7376   24.7215    4.6600 C   0  0  0  0  0  0  0  0  0  0  0  0
   -2.9979   26.0660    4.9474 C   0  0  0  0  0  0  0  0  0  0  0  0
   -4.2953   26.5858    4.8835 C   0  0  0  0  0  0  0  0  0  0  0  0
   -4.6252   27.8935    5.2259 N   0  0  0  0  0  0  0  0  0  0  0  0
   -3.6557   28.9859    5.2713 C   0  0  1  0  0  0  0  0  0  0  0  0
   -3.2592   29.3980    3.8541 C   0  0  0  0  0  0  0  0  0  0  0  0
   -4.2901   30.0801    6.1009 C   0  0  0  0  0  0  0  0  0  0  0  0
   -4.0348   31.5556    5.8984 C   0  0  0  0  0  0  0  0  0  0  0  0
   -5.3854   30.9772    5.5713 C   0  0  0  0  0  0  0  0  0  0  0  0
   -5.3336   25.6929    4.5740 C   0  0  0  0  0  0  0  0  0  0  0  0
  1  2  1  0
  2  3  1  0
  2  4  2  3
  4  5  1  0
  5  6  2  0
  6  7  1  0
  7  8  2  0
  8  9  1  0
  9 10  1  0
 10 11  1  0
 11 12  1  6
 11 13  1  0
 13 14  1  0
 14 15  1  0
  9 16  2  0
 16  5  1  0
 15 13  1  0
M  END
>  <Energy>  (1380) 
4.0814217744608952

>  <Energy_Delta>  (1380) 
6.1216225725773423

>  <std_smi>  (1380) 
CC(=O)Nc1cccc(NC(C)C2CC2)c1

>  <enum_smi>  (1380) 
CC(O)=Nc1cccc(NC(C)C2CC2)c1

>  <enum_code>  (1380) 
T

>  <parent_uuid>  (1380) 
80177037-97d9-4251-9583-a2fb747585df

>  <o3da_score>  (1380) 
81.512210278819254

>  <o3da_score_rel>  (1380) 
0.3245119525081982

>  <o3da_align>  (1380) 
0.46747127640640201

>  <RMSD>  (1380) 
0.26844720028474728

>  <CONVERGED>  (1380) 
0

>  <ENERGY>  (1380) 
3.7087624585034966

$$$$
f78f5899-7f06-4656-9911-0de2591275d6
     RDKit          3D

 16 17  0  0  0  0  0  0  0  0999 V2000
   -7.9284   22.0852    4.0717 C   0  0  0  0  0  0  0  0  0  0  0  0
   -6.8564   23.0246    4.5151 C   0  0  0  0  0  0  0  0  0  0  0  0
   -7.0595   23.4884    5.7636 O   0  0  0  0  0  0  0  0  0  0  0  0
   -5.8547   23.3396    3.7637 N   0  0  0  0  0  0  0  0  0  0  0  0
   -4.8772   24.2275    4.2266 C   0  0  0  0  0  0  0  0  0  0  0  0
   -3.7366   23.7437    4.8623 C   0  0  0  0  0  0  0  0  0  0  0  0
   -2.7641   24.6314    5.3131 C   0  0  0  0  0  0  0  0  0  0  0  0
   -2.9328   26.0084    5.1310 C   0  0  0  0  0  0  0  0  0  0  0  0
   -4.0767   26.5261    4.5137 C   0  0  0  0  0  0  0  0  0  0  0  0
   -4.2678   27.8773    4.2418 N   0  0  0  0  0  0  0  0  0  0  0  0
   -3.5452   28.9487    4.9239 C   0  0  2  0  0  0  0  0  0  0  0  0
   -4.0622   29.1062    6.3534 C   0  0  0  0  0  0  0  0  0  0  0  0
   -3.6899   30.1773    4.0533 C   0  0  0  0  0  0  0  0  0  0  0  0
   -4.9664   30.9841    3.9828 C   0  0  0  0  0  0  0  0  0  0  0  0
   -3.7265   31.5926    4.5811 C   0  0  0  0  0  0  0  0  0  0  0  0
   -5.0231   25.6067    4.0341 C   0  0  0  0  0  0  0  0  0  0  0  0
  1  2  1  0
  2  3  1  0
  2  4  2  3
  4  5  1  0
  5  6  2  0
  6  7  1  0
  7  8  2  0
  8  9  1  0
  9 10  1  0
 10 11  1  0
 11 12  1  1
 11 13  1  0
 13 14  1  0
 14 15  1  0
  9 16  2  0
 16  5  1  0
 15 13  1  0
M  END
>  <Energy>  (1381) 
4.0814217744625934

>  <Energy_Delta>  (1381) 
6.1216225725790405

>  <std_smi>  (1381) 
CC(=O)Nc1cccc(NC(C)C2CC2)c1

>  <enum_smi>  (1381) 
CC(O)=Nc1cccc(NC(C)C2CC2)c1

>  <enum_code>  (1381) 
T

>  <parent_uuid>  (1381) 
80177037-97d9-4251-9583-a2fb747585df

>  <o3da_score>  (1381) 
78.834526414549387

>  <o3da_score_rel>  (1381) 
0.31385170398810985

>  <o3da_align>  (1381) 
0.30680660781199526

>  <RMSD>  (1381) 
0.26846464059175024

>  <CONVERGED>  (1381) 
0

>  <ENERGY>  (1381) 
3.7087624585259737

$$$$
f78f5899-7f06-4656-9911-0de2591275d6
     RDKit          3D

 16 17  0  0  0  0  0  0  0  0999 V2000
   -7.9284   22.0852    4.0717 C   0  0  0  0  0  0  0  0  0  0  0  0
   -6.8565   23.0246    4.5151 C   0  0  0  0  0  0  0  0  0  0  0  0
   -7.0596   23.4884    5.7636 O   0  0  0  0  0  0  0  0  0  0  0  0
   -5.8548   23.3396    3.7637 N   0  0  0  0  0  0  0  0  0  0  0  0
   -4.8772   24.2276    4.2266 C   0  0  0  0  0  0  0  0  0  0  0  0
   -3.7366   23.7437    4.8623 C   0  0  0  0  0  0  0  0  0  0  0  0
   -2.7642   24.6314    5.3131 C   0  0  0  0  0  0  0  0  0  0  0  0
   -2.9328   26.0084    5.1310 C   0  0  0  0  0  0  0  0  0  0  0  0
   -4.0767   26.5261    4.5137 C   0  0  0  0  0  0  0  0  0  0  0  0
   -4.2678   27.8773    4.2418 N   0  0  0  0  0  0  0  0  0  0  0  0
   -3.5452   28.9488    4.9239 C   0  0  2  0  0  0  0  0  0  0  0  0
   -4.0622   29.1062    6.3534 C   0  0  0  0  0  0  0  0  0  0  0  0
   -3.6899   30.1773    4.0533 C   0  0  0  0  0  0  0  0  0  0  0  0
   -3.7264   31.5927    4.5811 C   0  0  0  0  0  0  0  0  0  0  0  0
   -4.9663   30.9841    3.9828 C   0  0  0  0  0  0  0  0  0  0  0  0
   -5.0231   25.6067    4.0341 C   0  0  0  0  0  0  0  0  0  0  0  0
  1  2  1  0
  2  3  1  0
  2  4  2  3
  4  5  1  0
  5  6  2  0
  6  7  1  0
  7  8  2  0
  8  9  1  0
  9 10  1  0
 10 11  1  0
 11 12  1  1
 11 13  1  0
 13 14  1  0
 14 15  1  0
  9 16  2  0
 16  5  1  0
 15 13  1  0
M  END
>  <Energy>  (1382) 
4.0814217744867065

>  <Energy_Delta>  (1382) 
6.1216225726031537

>  <std_smi>  (1382) 
CC(=O)Nc1cccc(NC(C)C2CC2)c1

>  <enum_smi>  (1382) 
CC(O)=Nc1cccc(NC(C)C2CC2)c1

>  <enum_code>  (1382) 
T

>  <parent_uuid>  (1382) 
80177037-97d9-4251-9583-a2fb747585df

>  <o3da_score>  (1382) 
78.834478351241884

>  <o3da_score_rel>  (1382) 
0.31385151264109928

>  <o3da_align>  (1382) 
0.30680879736918276

>  <RMSD>  (1382) 
0.26846249143787909

>  <CONVERGED>  (1382) 
0

>  <ENERGY>  (1382) 
3.7087624585166314

$$$$
f78f5899-7f06-4656-9911-0de2591275d6
     RDKit          3D

 16 17  0  0  0  0  0  0  0  0999 V2000
   -7.6911   21.7999    4.2682 C   0  0  0  0  0  0  0  0  0  0  0  0
   -6.6585   22.7943    4.6848 C   0  0  0  0  0  0  0  0  0  0  0  0
   -6.6655   23.0200    6.0129 O   0  0  0  0  0  0  0  0  0  0  0  0
   -5.8589   23.3588    3.8422 N   0  0  0  0  0  0  0  0  0  0  0  0
   -4.9070   24.2834    4.2860 C   0  0  0  0  0  0  0  0  0  0  0  0
   -3.6120   23.8653    4.5811 C   0  0  0  0  0  0  0  0  0  0  0  0
   -2.6777   24.7820    5.0537 C   0  0  0  0  0  0  0  0  0  0  0  0
   -3.0320   26.1263    5.2121 C   0  0  0  0  0  0  0  0  0  0  0  0
   -4.3074   26.5870    4.8677 C   0  0  0  0  0  0  0  0  0  0  0  0
   -4.7395   27.8980    5.0607 N   0  0  0  0  0  0  0  0  0  0  0  0
   -3.8195   29.0282    5.1878 C   0  0  1  0  0  0  0  0  0  0  0  0
   -3.1852   29.3505    3.8350 C   0  0  0  0  0  0  0  0  0  0  0  0
   -4.6203   30.1555    5.8019 C   0  0  0  0  0  0  0  0  0  0  0  0
   -4.3721   31.6207    5.5285 C   0  0  0  0  0  0  0  0  0  0  0  0
   -5.6267   30.9653    5.0167 C   0  0  0  0  0  0  0  0  0  0  0  0
   -5.2413   25.6355    4.4281 C   0  0  0  0  0  0  0  0  0  0  0  0
  1  2  1  0
  2  3  1  0
  2  4  2  3
  4  5  1  0
  5  6  2  0
  6  7  1  0
  7  8  2  0
  8  9  1  0
  9 10  1  0
 10 11  1  0
 11 12  1  6
 11 13  1  0
 13 14  1  0
 14 15  1  0
  9 16  2  0
 16  5  1  0
 15 13  1  0
M  END
>  <Energy>  (1383) 
4.6249550677269093

>  <Energy_Delta>  (1383) 
6.6651558658433565

>  <std_smi>  (1383) 
CC(=O)Nc1cccc(NC(C)C2CC2)c1

>  <enum_smi>  (1383) 
CC(O)=Nc1cccc(NC(C)C2CC2)c1

>  <enum_code>  (1383) 
T

>  <parent_uuid>  (1383) 
80177037-97d9-4251-9583-a2fb747585df

>  <o3da_score>  (1383) 
77.810180441280693

>  <o3da_score_rel>  (1383) 
0.30977363383527889

>  <o3da_align>  (1383) 
0.29564584575234953

>  <RMSD>  (1383) 
0.26479920870667306

>  <CONVERGED>  (1383) 
0

>  <ENERGY>  (1383) 
3.1008652784737434

$$$$
f78f5899-7f06-4656-9911-0de2591275d6
     RDKit          3D

 16 17  0  0  0  0  0  0  0  0999 V2000
   -6.5796   23.1706    6.3541 C   0  0  0  0  0  0  0  0  0  0  0  0
   -6.6109   22.8290    4.9003 C   0  0  0  0  0  0  0  0  0  0  0  0
   -7.5414   21.9207    4.5750 O   0  0  0  0  0  0  0  0  0  0  0  0
   -5.8807   23.2811    3.9383 N   0  0  0  0  0  0  0  0  0  0  0  0
   -4.8987   24.2342    4.2424 C   0  0  0  0  0  0  0  0  0  0  0  0
   -3.5997   23.8323    4.5413 C   0  0  0  0  0  0  0  0  0  0  0  0
   -2.6240   24.7870    4.8107 C   0  0  0  0  0  0  0  0  0  0  0  0
   -2.9466   26.1486    4.7811 C   0  0  0  0  0  0  0  0  0  0  0  0
   -4.2433   26.5867    4.5010 C   0  0  0  0  0  0  0  0  0  0  0  0
   -4.6161   27.9212    4.3831 N   0  0  0  0  0  0  0  0  0  0  0  0
   -3.8776   29.0782    4.8959 C   0  0  1  0  0  0  0  0  0  0  0  0
   -3.7250   29.0198    6.4125 C   0  0  0  0  0  0  0  0  0  0  0  0
   -2.6169   29.3205    4.1020 C   0  0  0  0  0  0  0  0  0  0  0  0
   -1.9163   30.6584    4.2014 C   0  0  0  0  0  0  0  0  0  0  0  0
   -1.2293   29.4225    4.7007 C   0  0  0  0  0  0  0  0  0  0  0  0
   -5.1985   25.6017    4.1959 C   0  0  0  0  0  0  0  0  0  0  0  0
  1  2  1  0
  2  3  1  0
  2  4  2  3
  4  5  1  0
  5  6  2  0
  6  7  1  0
  7  8  2  0
  8  9  1  0
  9 10  1  0
 10 11  1  0
 11 12  1  1
 11 13  1  0
 13 14  1  0
 14 15  1  0
  9 16  2  0
 16  5  1  0
 15 13  1  0
M  END
>  <Energy>  (1384) 
5.1405252700679744

>  <Energy_Delta>  (1384) 
7.1807260681844216

>  <std_smi>  (1384) 
CC(=O)Nc1cccc(NC(C)C2CC2)c1

>  <enum_smi>  (1384) 
CC(O)=Nc1cccc(NC(C)C2CC2)c1

>  <enum_code>  (1384) 
T

>  <parent_uuid>  (1384) 
80177037-97d9-4251-9583-a2fb747585df

>  <o3da_score>  (1384) 
84.75192050297747

>  <o3da_score_rel>  (1384) 
0.33740970962711586

>  <o3da_align>  (1384) 
0.27654148291368902

>  <RMSD>  (1384) 
0.23109763087158453

>  <CONVERGED>  (1384) 
0

>  <ENERGY>  (1384) 
4.970790571053783

$$$$
37e4db15-f6a6-47e0-947e-57b49586fff9
     RDKit          3D

 16 17  0  0  0  0  0  0  0  0999 V2000
    0.4961   32.5415   -0.5936 C   0  0  0  0  0  0  0  0  0  0  0  0
    0.1219   32.0718    0.5977 C   0  0  0  0  0  0  0  0  0  0  0  0
    0.3157   32.8727    1.6953 O   0  0  0  0  0  0  0  0  0  0  0  0
   -0.3499   30.8055    0.8239 N   0  0  0  0  0  0  0  0  0  0  0  0
   -1.4038   30.4157    1.6840 C   0  0  0  0  0  0  0  0  0  0  0  0
   -2.2473   31.3204    2.3311 C   0  0  0  0  0  0  0  0  0  0  0  0
   -3.2555   30.8636    3.1785 C   0  0  0  0  0  0  0  0  0  0  0  0
   -3.4173   29.4949    3.4089 C   0  0  0  0  0  0  0  0  0  0  0  0
   -2.5608   28.5592    2.8249 C   0  0  0  0  0  0  0  0  0  0  0  0
   -2.7006   27.1793    2.9656 N   0  0  0  0  0  0  0  0  0  0  0  0
   -3.4650   26.5684    4.0497 C   0  0  2  0  0  0  0  0  0  0  0  0
   -2.7097   26.6754    5.3740 C   0  0  0  0  0  0  0  0  0  0  0  0
   -3.6685   25.1150    3.6882 C   0  0  0  0  0  0  0  0  0  0  0  0
   -4.9154   24.3814    4.1190 C   0  0  0  0  0  0  0  0  0  0  0  0
   -4.7119   24.7251    2.6697 C   0  0  0  0  0  0  0  0  0  0  0  0
   -1.5798   29.0441    1.9420 C   0  0  0  0  0  0  0  0  0  0  0  0
  1  2  2  3
  2  3  1  0
  2  4  1  0
  4  5  1  0
  5  6  2  0
  6  7  1  0
  7  8  2  0
  8  9  1  0
  9 10  1  0
 10 11  1  0
 11 12  1  1
 11 13  1  0
 13 14  1  0
 14 15  1  0
  9 16  2  0
 16  5  1  0
 15 13  1  0
M  END
>  <Energy>  (1385) 
-17.505130615593675

>  <Energy_Delta>  (1385) 
0

>  <std_smi>  (1385) 
CC(=O)Nc1cccc(NC(C)C2CC2)c1

>  <enum_smi>  (1385) 
C=C(O)Nc1cccc(N[C@H](C)C2CC2)c1

>  <enum_code>  (1385) 
T

>  <parent_uuid>  (1385) 
80177037-97d9-4251-9583-a2fb747585df

>  <o3da_score>  (1385) 
85.993928458091119

>  <o3da_score_rel>  (1385) 
0.34235432375506053

>  <o3da_align>  (1385) 
0.60203888345294287

>  <RMSD>  (1385) 
0.30789643069011724

>  <CONVERGED>  (1385) 
0

>  <ENERGY>  (1385) 
-17.705101081941546

$$$$
37e4db15-f6a6-47e0-947e-57b49586fff9
     RDKit          3D

 16 17  0  0  0  0  0  0  0  0999 V2000
   -6.4063   21.2125    2.9255 C   0  0  0  0  0  0  0  0  0  0  0  0
   -5.9417   22.0258    3.8755 C   0  0  0  0  0  0  0  0  0  0  0  0
   -5.5682   21.4693    5.0732 O   0  0  0  0  0  0  0  0  0  0  0  0
   -5.9037   23.3922    3.7826 N   0  0  0  0  0  0  0  0  0  0  0  0
   -4.8776   24.2613    4.2235 C   0  0  0  0  0  0  0  0  0  0  0  0
   -3.6400   23.8188    4.6940 C   0  0  0  0  0  0  0  0  0  0  0  0
   -2.6819   24.7335    5.1284 C   0  0  0  0  0  0  0  0  0  0  0  0
   -2.9593   26.1030    5.1208 C   0  0  0  0  0  0  0  0  0  0  0  0
   -4.2041   26.5842    4.7099 C   0  0  0  0  0  0  0  0  0  0  0  0
   -4.5264   27.9371    4.6227 N   0  0  0  0  0  0  0  0  0  0  0  0
   -3.7969   28.9799    5.3427 C   0  0  2  0  0  0  0  0  0  0  0  0
   -4.1320   28.9275    6.8330 C   0  0  0  0  0  0  0  0  0  0  0  0
   -4.1404   30.2841    4.6569 C   0  0  0  0  0  0  0  0  0  0  0  0
   -5.4682   30.9819    4.8442 C   0  0  0  0  0  0  0  0  0  0  0  0
   -4.2060   31.6208    5.3585 C   0  0  0  0  0  0  0  0  0  0  0  0
   -5.1363   25.6438    4.2372 C   0  0  0  0  0  0  0  0  0  0  0  0
  1  2  2  3
  2  3  1  0
  2  4  1  0
  4  5  1  0
  5  6  2  0
  6  7  1  0
  7  8  2  0
  8  9  1  0
  9 10  1  0
 10 11  1  0
 11 12  1  1
 11 13  1  0
 13 14  1  0
 14 15  1  0
  9 16  2  0
 16  5  1  0
 15 13  1  0
M  END
>  <Energy>  (1386) 
-15.45204591419839

>  <Energy_Delta>  (1386) 
2.0530847013952851

>  <std_smi>  (1386) 
CC(=O)Nc1cccc(NC(C)C2CC2)c1

>  <enum_smi>  (1386) 
C=C(O)Nc1cccc(N[C@H](C)C2CC2)c1

>  <enum_code>  (1386) 
T

>  <parent_uuid>  (1386) 
80177037-97d9-4251-9583-a2fb747585df

>  <o3da_score>  (1386) 
73.268427922717706

>  <o3da_score_rel>  (1386) 
0.29169225716095654

>  <o3da_align>  (1386) 
0.18001833431247713

>  <RMSD>  (1386) 
5.8776828977790798e-05

>  <CONVERGED>  (1386) 
0

>  <ENERGY>  (1386) 
-15.452045914577171

$$$$
37e4db15-f6a6-47e0-947e-57b49586fff9
     RDKit          3D

 16 17  0  0  0  0  0  0  0  0999 V2000
   -6.7023   21.1332    3.6479 C   0  0  0  0  0  0  0  0  0  0  0  0
   -5.7522   22.0432    3.4269 C   0  0  0  0  0  0  0  0  0  0  0  0
   -4.6111   21.6383    2.7806 O   0  0  0  0  0  0  0  0  0  0  0  0
   -5.8713   23.3791    3.7064 N   0  0  0  0  0  0  0  0  0  0  0  0
   -4.8866   24.2427    4.2419 C   0  0  0  0  0  0  0  0  0  0  0  0
   -3.6531   23.8025    4.7245 C   0  0  0  0  0  0  0  0  0  0  0  0
   -2.7223   24.7151    5.2182 C   0  0  0  0  0  0  0  0  0  0  0  0
   -3.0053   26.0838    5.2166 C   0  0  0  0  0  0  0  0  0  0  0  0
   -4.2072   26.5709    4.6999 C   0  0  0  0  0  0  0  0  0  0  0  0
   -4.5806   27.9108    4.7113 N   0  0  0  0  0  0  0  0  0  0  0  0
   -3.6804   29.0115    5.0350 C   0  0  2  0  0  0  0  0  0  0  0  0
   -4.5235   30.1445    5.6317 C   0  0  0  0  0  0  0  0  0  0  0  0
   -2.9052   29.5271    3.8441 C   0  0  0  0  0  0  0  0  0  0  0  0
   -3.5727   29.8696    2.5305 C   0  0  0  0  0  0  0  0  0  0  0  0
   -2.6054   28.7205    2.6000 C   0  0  0  0  0  0  0  0  0  0  0  0
   -5.1418   25.6259    4.2401 C   0  0  0  0  0  0  0  0  0  0  0  0
  1  2  2  3
  2  3  1  0
  2  4  1  0
  4  5  1  0
  5  6  2  0
  6  7  1  0
  7  8  2  0
  8  9  1  0
  9 10  1  0
 10 11  1  0
 11 12  1  6
 11 13  1  0
 13 14  1  0
 14 15  1  0
  9 16  2  0
 16  5  1  0
 15 13  1  0
M  END
>  <Energy>  (1387) 
-15.391225800510009

>  <Energy_Delta>  (1387) 
2.1139048150836661

>  <std_smi>  (1387) 
CC(=O)Nc1cccc(NC(C)C2CC2)c1

>  <enum_smi>  (1387) 
C=C(O)Nc1cccc(N[C@H](C)C2CC2)c1

>  <enum_code>  (1387) 
T

>  <parent_uuid>  (1387) 
80177037-97d9-4251-9583-a2fb747585df

>  <o3da_score>  (1387) 
86.954812960534227

>  <o3da_score_rel>  (1387) 
0.34617974457184464

>  <o3da_align>  (1387) 
0.16666863580878977

>  <RMSD>  (1387) 
7.5543708407448999e-05

>  <CONVERGED>  (1387) 
0

>  <ENERGY>  (1387) 
-15.391225801133603

$$$$
37e4db15-f6a6-47e0-947e-57b49586fff9
     RDKit          3D

 16 17  0  0  0  0  0  0  0  0999 V2000
   -6.7086   21.1342    3.6569 C   0  0  0  0  0  0  0  0  0  0  0  0
   -5.7574   22.0423    3.4326 C   0  0  0  0  0  0  0  0  0  0  0  0
   -4.6169   21.6339    2.7874 O   0  0  0  0  0  0  0  0  0  0  0  0
   -5.8749   23.3793    3.7076 N   0  0  0  0  0  0  0  0  0  0  0  0
   -4.8890   24.2435    4.2401 C   0  0  0  0  0  0  0  0  0  0  0  0
   -3.6560   23.8034    4.7238 C   0  0  0  0  0  0  0  0  0  0  0  0
   -2.7240   24.7166    5.2143 C   0  0  0  0  0  0  0  0  0  0  0  0
   -3.0054   26.0856    5.2081 C   0  0  0  0  0  0  0  0  0  0  0  0
   -4.2068   26.5724    4.6901 C   0  0  0  0  0  0  0  0  0  0  0  0
   -4.5786   27.9128    4.6971 N   0  0  0  0  0  0  0  0  0  0  0  0
   -3.6770   29.0135    5.0170 C   0  0  2  0  0  0  0  0  0  0  0  0
   -4.5186   30.1495    5.6100 C   0  0  0  0  0  0  0  0  0  0  0  0
   -2.9014   29.5241    3.8241 C   0  0  0  0  0  0  0  0  0  0  0  0
   -2.6029   28.7131    2.5826 C   0  0  0  0  0  0  0  0  0  0  0  0
   -3.5688   29.8631    2.5095 C   0  0  0  0  0  0  0  0  0  0  0  0
   -5.1426   25.6269    4.2336 C   0  0  0  0  0  0  0  0  0  0  0  0
  1  2  2  3
  2  3  1  0
  2  4  1  0
  4  5  1  0
  5  6  2  0
  6  7  1  0
  7  8  2  0
  8  9  1  0
  9 10  1  0
 10 11  1  0
 11 12  1  6
 11 13  1  0
 13 14  1  0
 14 15  1  0
  9 16  2  0
 16  5  1  0
 15 13  1  0
M  END
>  <Energy>  (1388) 
-15.391225800243472

>  <Energy_Delta>  (1388) 
2.1139048153502031

>  <std_smi>  (1388) 
CC(=O)Nc1cccc(NC(C)C2CC2)c1

>  <enum_smi>  (1388) 
C=C(O)Nc1cccc(N[C@H](C)C2CC2)c1

>  <enum_code>  (1388) 
T

>  <parent_uuid>  (1388) 
80177037-97d9-4251-9583-a2fb747585df

>  <o3da_score>  (1388) 
86.95883666948744

>  <o3da_score_rel>  (1388) 
0.34619576354181575

>  <o3da_align>  (1388) 
0.16521300829560848

>  <RMSD>  (1388) 
6.4813028426495483e-05

>  <CONVERGED>  (1388) 
0

>  <ENERGY>  (1388) 
-15.39122580112782

$$$$
37e4db15-f6a6-47e0-947e-57b49586fff9
     RDKit          3D

 16 17  0  0  0  0  0  0  0  0999 V2000
   -0.1600   22.4488    6.5417 C   0  0  0  0  0  0  0  0  0  0  0  0
   -0.8871   23.0250    5.5829 C   0  0  0  0  0  0  0  0  0  0  0  0
   -0.9968   22.3744    4.3795 O   0  0  0  0  0  0  0  0  0  0  0  0
   -1.4512   24.2701    5.6735 N   0  0  0  0  0  0  0  0  0  0  0  0
   -2.7257   24.6800    5.2117 C   0  0  0  0  0  0  0  0  0  0  0  0
   -3.6877   23.7936    4.7214 C   0  0  0  0  0  0  0  0  0  0  0  0
   -4.9130   24.2677    4.2588 C   0  0  0  0  0  0  0  0  0  0  0  0
   -5.1778   25.6377    4.2635 C   0  0  0  0  0  0  0  0  0  0  0  0
   -4.2250   26.5653    4.7052 C   0  0  0  0  0  0  0  0  0  0  0  0
   -4.5807   27.9093    4.7262 N   0  0  0  0  0  0  0  0  0  0  0  0
   -3.6641   29.0018    5.0289 C   0  0  2  0  0  0  0  0  0  0  0  0
   -4.4844   30.1452    5.6375 C   0  0  0  0  0  0  0  0  0  0  0  0
   -2.9059   29.5061    3.8225 C   0  0  0  0  0  0  0  0  0  0  0  0
   -3.5927   29.8426    2.5174 C   0  0  0  0  0  0  0  0  0  0  0  0
   -2.6290   28.6900    2.5794 C   0  0  0  0  0  0  0  0  0  0  0  0
   -3.0148   26.0589    5.1974 C   0  0  0  0  0  0  0  0  0  0  0  0
  1  2  2  3
  2  3  1  0
  2  4  1  0
  4  5  1  0
  5  6  2  0
  6  7  1  0
  7  8  2  0
  8  9  1  0
  9 10  1  0
 10 11  1  0
 11 12  1  6
 11 13  1  0
 13 14  1  0
 14 15  1  0
  9 16  2  0
 16  5  1  0
 15 13  1  0
M  END
>  <Energy>  (1389) 
-15.382231681618698

>  <Energy_Delta>  (1389) 
2.1228989339749766

>  <std_smi>  (1389) 
CC(=O)Nc1cccc(NC(C)C2CC2)c1

>  <enum_smi>  (1389) 
C=C(O)Nc1cccc(N[C@H](C)C2CC2)c1

>  <enum_code>  (1389) 
T

>  <parent_uuid>  (1389) 
80177037-97d9-4251-9583-a2fb747585df

>  <o3da_score>  (1389) 
86.977681082380727

>  <o3da_score_rel>  (1389) 
0.34627078588755944

>  <o3da_align>  (1389) 
0.16584046532273936

>  <RMSD>  (1389) 
6.9265418779430752e-05

>  <CONVERGED>  (1389) 
0

>  <ENERGY>  (1389) 
-15.382231681983068

$$$$
37e4db15-f6a6-47e0-947e-57b49586fff9
     RDKit          3D

 16 17  0  0  0  0  0  0  0  0999 V2000
   -6.6142   21.2058    3.3273 C   0  0  0  0  0  0  0  0  0  0  0  0
   -5.6754   22.1426    3.1828 C   0  0  0  0  0  0  0  0  0  0  0  0
   -4.5173   21.7982    2.5318 O   0  0  0  0  0  0  0  0  0  0  0  0
   -5.8208   23.4555    3.5465 N   0  0  0  0  0  0  0  0  0  0  0  0
   -4.8591   24.2964    4.1550 C   0  0  0  0  0  0  0  0  0  0  0  0
   -3.6281   23.8429    4.6320 C   0  0  0  0  0  0  0  0  0  0  0  0
   -2.7221   24.7334    5.2060 C   0  0  0  0  0  0  0  0  0  0  0  0
   -3.0257   26.0950    5.2875 C   0  0  0  0  0  0  0  0  0  0  0  0
   -4.2214   26.5990    4.7716 C   0  0  0  0  0  0  0  0  0  0  0  0
   -4.6159   27.9346    4.8718 N   0  0  0  0  0  0  0  0  0  0  0  0
   -3.6631   29.0258    5.0809 C   0  0  2  0  0  0  0  0  0  0  0  0
   -4.4429   30.2246    5.6254 C   0  0  0  0  0  0  0  0  0  0  0  0
   -2.9234   29.2839    3.7887 C   0  0  0  0  0  0  0  0  0  0  0  0
   -3.6071   29.8619    2.5703 C   0  0  0  0  0  0  0  0  0  0  0  0
   -2.5474   30.6578    3.2819 C   0  0  0  0  0  0  0  0  0  0  0  0
   -5.1357   25.6730    4.2381 C   0  0  0  0  0  0  0  0  0  0  0  0
  1  2  2  3
  2  3  1  0
  2  4  1  0
  4  5  1  0
  5  6  2  0
  6  7  1  0
  7  8  2  0
  8  9  1  0
  9 10  1  0
 10 11  1  0
 11 12  1  6
 11 13  1  0
 13 14  1  0
 14 15  1  0
  9 16  2  0
 16  5  1  0
 15 13  1  0
M  END
>  <Energy>  (1390) 
-15.258517404711803

>  <Energy_Delta>  (1390) 
2.2466132108818719

>  <std_smi>  (1390) 
CC(=O)Nc1cccc(NC(C)C2CC2)c1

>  <enum_smi>  (1390) 
C=C(O)Nc1cccc(N[C@H](C)C2CC2)c1

>  <enum_code>  (1390) 
T

>  <parent_uuid>  (1390) 
80177037-97d9-4251-9583-a2fb747585df

>  <o3da_score>  (1390) 
85.535860311271804

>  <o3da_score_rel>  (1390) 
0.3405306879071589

>  <o3da_align>  (1390) 
0.23411285843393609

>  <RMSD>  (1390) 
5.8030318111759379e-05

>  <CONVERGED>  (1390) 
0

>  <ENERGY>  (1390) 
-15.258517405587618

$$$$
37e4db15-f6a6-47e0-947e-57b49586fff9
     RDKit          3D

 16 17  0  0  0  0  0  0  0  0999 V2000
    0.1670   22.5314    5.7154 C   0  0  0  0  0  0  0  0  0  0  0  0
   -1.0786   22.9693    5.9063 C   0  0  0  0  0  0  0  0  0  0  0  0
   -1.9910   22.0981    6.4468 O   0  0  0  0  0  0  0  0  0  0  0  0
   -1.4920   24.2586    5.6991 N   0  0  0  0  0  0  0  0  0  0  0  0
   -2.7166   24.7004    5.1428 C   0  0  0  0  0  0  0  0  0  0  0  0
   -3.6532   23.8403    4.5640 C   0  0  0  0  0  0  0  0  0  0  0  0
   -4.8682   24.3327    4.0931 C   0  0  0  0  0  0  0  0  0  0  0  0
   -5.1552   25.6946    4.1933 C   0  0  0  0  0  0  0  0  0  0  0  0
   -4.2322   26.5974    4.7374 C   0  0  0  0  0  0  0  0  0  0  0  0
   -4.6156   27.9333    4.8685 N   0  0  0  0  0  0  0  0  0  0  0  0
   -3.6545   29.0161    5.0811 C   0  0  2  0  0  0  0  0  0  0  0  0
   -4.4207   30.2122    5.6500 C   0  0  0  0  0  0  0  0  0  0  0  0
   -2.9271   29.2865    3.7843 C   0  0  0  0  0  0  0  0  0  0  0  0
   -3.6200   29.8868    2.5821 C   0  0  0  0  0  0  0  0  0  0  0  0
   -2.5461   30.6645    3.2927 C   0  0  0  0  0  0  0  0  0  0  0  0
   -3.0354   26.0692    5.2405 C   0  0  0  0  0  0  0  0  0  0  0  0
  1  2  2  3
  2  3  1  0
  2  4  1  0
  4  5  1  0
  5  6  2  0
  6  7  1  0
  7  8  2  0
  8  9  1  0
  9 10  1  0
 10 11  1  0
 11 12  1  6
 11 13  1  0
 13 14  1  0
 14 15  1  0
  9 16  2  0
 16  5  1  0
 15 13  1  0
M  END
>  <Energy>  (1391) 
-15.209354431849386

>  <Energy_Delta>  (1391) 
2.2957761837442892

>  <std_smi>  (1391) 
CC(=O)Nc1cccc(NC(C)C2CC2)c1

>  <enum_smi>  (1391) 
C=C(O)Nc1cccc(N[C@H](C)C2CC2)c1

>  <enum_code>  (1391) 
T

>  <parent_uuid>  (1391) 
80177037-97d9-4251-9583-a2fb747585df

>  <o3da_score>  (1391) 
85.545567566357633

>  <o3da_score_rel>  (1391) 
0.34056933390007976

>  <o3da_align>  (1391) 
0.23361380530437645

>  <RMSD>  (1391) 
6.1799640989410037e-05

>  <CONVERGED>  (1391) 
0

>  <ENERGY>  (1391) 
-15.209354432424982

$$$$
37e4db15-f6a6-47e0-947e-57b49586fff9
     RDKit          3D

 16 17  0  0  0  0  0  0  0  0999 V2000
   -7.9978   24.3712    3.9197 C   0  0  0  0  0  0  0  0  0  0  0  0
   -7.1731   23.5234    3.3020 C   0  0  0  0  0  0  0  0  0  0  0  0
   -7.7278   22.6494    2.3998 O   0  0  0  0  0  0  0  0  0  0  0  0
   -5.8223   23.3685    3.4646 N   0  0  0  0  0  0  0  0  0  0  0  0
   -4.9100   24.2596    4.0681 C   0  0  0  0  0  0  0  0  0  0  0  0
   -3.8481   23.7503    4.8212 C   0  0  0  0  0  0  0  0  0  0  0  0
   -2.9187   24.6092    5.4054 C   0  0  0  0  0  0  0  0  0  0  0  0
   -3.0417   25.9918    5.2464 C   0  0  0  0  0  0  0  0  0  0  0  0
   -4.1009   26.5432    4.5215 C   0  0  0  0  0  0  0  0  0  0  0  0
   -4.2391   27.9068    4.2622 N   0  0  0  0  0  0  0  0  0  0  0  0
   -3.5983   28.9336    5.0784 C   0  0  2  0  0  0  0  0  0  0  0  0
   -4.2884   29.0570    6.4364 C   0  0  0  0  0  0  0  0  0  0  0  0
   -3.7092   30.2382    4.3232 C   0  0  0  0  0  0  0  0  0  0  0  0
   -2.6348   31.2917    4.4428 C   0  0  0  0  0  0  0  0  0  0  0  0
   -2.7898   30.5225    3.1605 C   0  0  0  0  0  0  0  0  0  0  0  0
   -5.0016   25.6522    3.9110 C   0  0  0  0  0  0  0  0  0  0  0  0
  1  2  2  3
  2  3  1  0
  2  4  1  0
  4  5  1  0
  5  6  2  0
  6  7  1  0
  7  8  2  0
  8  9  1  0
  9 10  1  0
 10 11  1  0
 11 12  1  1
 11 13  1  0
 13 14  1  0
 14 15  1  0
  9 16  2  0
 16  5  1  0
 15 13  1  0
M  END
>  <Energy>  (1392) 
-13.793495072236841

>  <Energy_Delta>  (1392) 
3.7116355433568344

>  <std_smi>  (1392) 
CC(=O)Nc1cccc(NC(C)C2CC2)c1

>  <enum_smi>  (1392) 
C=C(O)Nc1cccc(N[C@H](C)C2CC2)c1

>  <enum_code>  (1392) 
T

>  <parent_uuid>  (1392) 
80177037-97d9-4251-9583-a2fb747585df

>  <o3da_score>  (1392) 
90.19985152137167

>  <o3da_score_rel>  (1392) 
0.3590987145732677

>  <o3da_align>  (1392) 
0.37982324996473632

>  <RMSD>  (1392) 
0.3943617514352093

>  <CONVERGED>  (1392) 
0

>  <ENERGY>  (1392) 
-12.592346519998959

$$$$
37e4db15-f6a6-47e0-947e-57b49586fff9
     RDKit          3D

 16 17  0  0  0  0  0  0  0  0999 V2000
   -6.1110   21.5870    5.0767 C   0  0  0  0  0  0  0  0  0  0  0  0
   -6.2042   22.1168    3.8558 C   0  0  0  0  0  0  0  0  0  0  0  0
   -6.8695   21.3868    2.9017 O   0  0  0  0  0  0  0  0  0  0  0  0
   -5.7524   23.3298    3.4100 N   0  0  0  0  0  0  0  0  0  0  0  0
   -4.8021   24.1831    4.0091 C   0  0  0  0  0  0  0  0  0  0  0  0
   -3.6665   23.6986    4.6611 C   0  0  0  0  0  0  0  0  0  0  0  0
   -2.7344   24.5783    5.2086 C   0  0  0  0  0  0  0  0  0  0  0  0
   -2.9309   25.9585    5.1172 C   0  0  0  0  0  0  0  0  0  0  0  0
   -4.0680   26.4858    4.5008 C   0  0  0  0  0  0  0  0  0  0  0  0
   -4.2924   27.8499    4.3154 N   0  0  0  0  0  0  0  0  0  0  0  0
   -3.6082   28.8758    5.0978 C   0  0  2  0  0  0  0  0  0  0  0  0
   -4.1566   28.9279    6.5234 C   0  0  0  0  0  0  0  0  0  0  0  0
   -3.8467   30.1980    4.4052 C   0  0  0  0  0  0  0  0  0  0  0  0
   -2.8056   31.2901    4.4502 C   0  0  0  0  0  0  0  0  0  0  0  0
   -3.0661   30.5565    3.1642 C   0  0  0  0  0  0  0  0  0  0  0  0
   -4.9705   25.5763    3.9201 C   0  0  0  0  0  0  0  0  0  0  0  0
  1  2  2  3
  2  3  1  0
  2  4  1  0
  4  5  1  0
  5  6  2  0
  6  7  1  0
  7  8  2  0
  8  9  1  0
  9 10  1  0
 10 11  1  0
 11 12  1  1
 11 13  1  0
 13 14  1  0
 14 15  1  0
  9 16  2  0
 16  5  1  0
 15 13  1  0
M  END
>  <Energy>  (1393) 
-13.695475347185075

>  <Energy_Delta>  (1393) 
3.8096552684085996

>  <std_smi>  (1393) 
CC(=O)Nc1cccc(NC(C)C2CC2)c1

>  <enum_smi>  (1393) 
C=C(O)Nc1cccc(N[C@H](C)C2CC2)c1

>  <enum_code>  (1393) 
T

>  <parent_uuid>  (1393) 
80177037-97d9-4251-9583-a2fb747585df

>  <o3da_score>  (1393) 
82.527266311921409

>  <o3da_score_rel>  (1393) 
0.32855303805943614

>  <o3da_align>  (1393) 
0.39277530729603899

>  <RMSD>  (1393) 
0.41665151349117985

>  <CONVERGED>  (1393) 
0

>  <ENERGY>  (1393) 
-12.637254902995316

$$$$
37e4db15-f6a6-47e0-947e-57b49586fff9
     RDKit          3D

 16 17  0  0  0  0  0  0  0  0999 V2000
    0.2296   22.5555    5.4770 C   0  0  0  0  0  0  0  0  0  0  0  0
   -0.9545   23.0588    5.8296 C   0  0  0  0  0  0  0  0  0  0  0  0
   -1.7517   22.3092    6.6580 O   0  0  0  0  0  0  0  0  0  0  0  0
   -1.3949   24.3157    5.5086 N   0  0  0  0  0  0  0  0  0  0  0  0
   -2.7011   24.7034    5.1213 C   0  0  0  0  0  0  0  0  0  0  0  0
   -3.7221   23.7926    4.8434 C   0  0  0  0  0  0  0  0  0  0  0  0
   -4.9891   24.2457    4.4883 C   0  0  0  0  0  0  0  0  0  0  0  0
   -5.2482   25.6162    4.4310 C   0  0  0  0  0  0  0  0  0  0  0  0
   -4.2672   26.5681    4.7483 C   0  0  0  0  0  0  0  0  0  0  0  0
   -4.6017   27.9084    4.6111 N   0  0  0  0  0  0  0  0  0  0  0  0
   -3.8443   29.0805    5.0473 C   0  0  2  0  0  0  0  0  0  0  0  0
   -2.6039   29.3357    4.1997 C   0  0  0  0  0  0  0  0  0  0  0  0
   -3.5629   29.0505    6.5256 C   0  0  0  0  0  0  0  0  0  0  0  0
   -4.6830   29.2347    7.5215 C   0  0  0  0  0  0  0  0  0  0  0  0
   -3.6493   30.3122    7.3513 C   0  0  0  0  0  0  0  0  0  0  0  0
   -2.9948   26.0814    5.0642 C   0  0  0  0  0  0  0  0  0  0  0  0
  1  2  2  3
  2  3  1  0
  2  4  1  0
  4  5  1  0
  5  6  2  0
  6  7  1  0
  7  8  2  0
  8  9  1  0
  9 10  1  0
 10 11  1  0
 11 12  1  6
 11 13  1  0
 13 14  1  0
 14 15  1  0
  9 16  2  0
 16  5  1  0
 15 13  1  0
M  END
>  <Energy>  (1394) 
-12.897467988337791

>  <Energy_Delta>  (1394) 
4.607662627255884

>  <std_smi>  (1394) 
CC(=O)Nc1cccc(NC(C)C2CC2)c1

>  <enum_smi>  (1394) 
C=C(O)Nc1cccc(N[C@H](C)C2CC2)c1

>  <enum_code>  (1394) 
T

>  <parent_uuid>  (1394) 
80177037-97d9-4251-9583-a2fb747585df

>  <o3da_score>  (1394) 
77.221590814031188

>  <o3da_score_rel>  (1394) 
0.30743037300955151

>  <o3da_align>  (1394) 
0.33711288487294649

>  <RMSD>  (1394) 
6.8594148094312842e-05

>  <CONVERGED>  (1394) 
0

>  <ENERGY>  (1394) 
-12.897467988370378

$$$$
37e4db15-f6a6-47e0-947e-57b49586fff9
     RDKit          3D

 16 17  0  0  0  0  0  0  0  0999 V2000
   -6.4439   21.1517    3.0992 C   0  0  0  0  0  0  0  0  0  0  0  0
   -5.9210   21.9794    4.0055 C   0  0  0  0  0  0  0  0  0  0  0  0
   -5.4403   21.4371    5.1710 O   0  0  0  0  0  0  0  0  0  0  0  0
   -5.9191   23.3458    3.9048 N   0  0  0  0  0  0  0  0  0  0  0  0
   -4.8798   24.2380    4.2593 C   0  0  0  0  0  0  0  0  0  0  0  0
   -3.6003   23.8251    4.6296 C   0  0  0  0  0  0  0  0  0  0  0  0
   -2.6347   24.7645    4.9845 C   0  0  0  0  0  0  0  0  0  0  0  0
   -2.9434   26.1287    4.9949 C   0  0  0  0  0  0  0  0  0  0  0  0
   -4.2218   26.5858    4.6813 C   0  0  0  0  0  0  0  0  0  0  0  0
   -4.6012   27.9194    4.6108 N   0  0  0  0  0  0  0  0  0  0  0  0
   -3.8808   29.0918    5.1058 C   0  0  2  0  0  0  0  0  0  0  0  0
   -2.6425   29.4211    4.2809 C   0  0  0  0  0  0  0  0  0  0  0  0
   -3.6092   29.0027    6.5835 C   0  0  0  0  0  0  0  0  0  0  0  0
   -3.7396   30.2222    7.4649 C   0  0  0  0  0  0  0  0  0  0  0  0
   -4.7412   29.1074    7.5774 C   0  0  0  0  0  0  0  0  0  0  0  0
   -5.1654   25.6154    4.2908 C   0  0  0  0  0  0  0  0  0  0  0  0
  1  2  2  3
  2  3  1  0
  2  4  1  0
  4  5  1  0
  5  6  2  0
  6  7  1  0
  7  8  2  0
  8  9  1  0
  9 10  1  0
 10 11  1  0
 11 12  1  6
 11 13  1  0
 13 14  1  0
 14 15  1  0
  9 16  2  0
 16  5  1  0
 15 13  1  0
M  END
>  <Energy>  (1395) 
-12.837580179579318

>  <Energy_Delta>  (1395) 
4.6675504360143574

>  <std_smi>  (1395) 
CC(=O)Nc1cccc(NC(C)C2CC2)c1

>  <enum_smi>  (1395) 
C=C(O)Nc1cccc(N[C@H](C)C2CC2)c1

>  <enum_code>  (1395) 
T

>  <parent_uuid>  (1395) 
80177037-97d9-4251-9583-a2fb747585df

>  <o3da_score>  (1395) 
77.092390380089185

>  <o3da_score_rel>  (1395) 
0.30691600730973784

>  <o3da_align>  (1395) 
0.33939164214207174

>  <RMSD>  (1395) 
6.109287096217245e-05

>  <CONVERGED>  (1395) 
0

>  <ENERGY>  (1395) 
-12.837580179954699

$$$$
37e4db15-f6a6-47e0-947e-57b49586fff9
     RDKit          3D

 16 17  0  0  0  0  0  0  0  0999 V2000
   -0.2504   30.7588    0.9194 C   0  0  0  0  0  0  0  0  0  0  0  0
   -1.3974   30.3963    1.4964 C   0  0  0  0  0  0  0  0  0  0  0  0
   -2.2320   31.3880    1.9477 O   0  0  0  0  0  0  0  0  0  0  0  0
   -1.8546   29.1079    1.5801 N   0  0  0  0  0  0  0  0  0  0  0  0
   -2.5200   28.4903    2.6650 C   0  0  0  0  0  0  0  0  0  0  0  0
   -2.6823   29.0918    3.9144 C   0  0  0  0  0  0  0  0  0  0  0  0
   -3.4062   28.4512    4.9188 C   0  0  0  0  0  0  0  0  0  0  0  0
   -3.9764   27.1970    4.6868 C   0  0  0  0  0  0  0  0  0  0  0  0
   -3.8135   26.5460    3.4621 C   0  0  0  0  0  0  0  0  0  0  0  0
   -4.4129   25.3292    3.1411 N   0  0  0  0  0  0  0  0  0  0  0  0
   -4.9094   24.3999    4.1520 C   0  0  2  0  0  0  0  0  0  0  0  0
   -3.7510   23.6973    4.8590 C   0  0  0  0  0  0  0  0  0  0  0  0
   -5.7712   23.3833    3.4391 C   0  0  0  0  0  0  0  0  0  0  0  0
   -6.9605   22.7615    4.1302 C   0  0  0  0  0  0  0  0  0  0  0  0
   -7.1733   23.7432    3.0116 C   0  0  0  0  0  0  0  0  0  0  0  0
   -3.1106   27.2310    2.4550 C   0  0  0  0  0  0  0  0  0  0  0  0
  1  2  2  3
  2  3  1  0
  2  4  1  0
  4  5  1  0
  5  6  2  0
  6  7  1  0
  7  8  2  0
  8  9  1  0
  9 10  1  0
 10 11  1  0
 11 12  1  6
 11 13  1  0
 13 14  1  0
 14 15  1  0
  9 16  2  0
 16  5  1  0
 15 13  1  0
M  END
>  <Energy>  (1396) 
-12.622354172233456

>  <Energy_Delta>  (1396) 
4.8827764433602194

>  <std_smi>  (1396) 
CC(=O)Nc1cccc(NC(C)C2CC2)c1

>  <enum_smi>  (1396) 
C=C(O)Nc1cccc(N[C@H](C)C2CC2)c1

>  <enum_code>  (1396) 
T

>  <parent_uuid>  (1396) 
80177037-97d9-4251-9583-a2fb747585df

>  <o3da_score>  (1396) 
80.666539807689873

>  <o3da_score_rel>  (1396) 
0.32114521549019792

>  <o3da_align>  (1396) 
0.36249628757968938

>  <RMSD>  (1396) 
0.25399158166553759

>  <CONVERGED>  (1396) 
0

>  <ENERGY>  (1396) 
-17.620948586999862

$$$$
37e4db15-f6a6-47e0-947e-57b49586fff9
     RDKit          3D

 16 17  0  0  0  0  0  0  0  0999 V2000
   -6.7731   24.2034    1.7278 C   0  0  0  0  0  0  0  0  0  0  0  0
   -6.9061   23.4846    2.8440 C   0  0  0  0  0  0  0  0  0  0  0  0
   -8.0112   22.6756    2.9445 O   0  0  0  0  0  0  0  0  0  0  0  0
   -6.0624   23.4054    3.9202 N   0  0  0  0  0  0  0  0  0  0  0  0
   -5.0161   24.2855    4.2707 C   0  0  0  0  0  0  0  0  0  0  0  0
   -3.8393   23.7690    4.8209 C   0  0  0  0  0  0  0  0  0  0  0  0
   -2.7874   24.6165    5.1644 C   0  0  0  0  0  0  0  0  0  0  0  0
   -2.9085   25.9966    4.9838 C   0  0  0  0  0  0  0  0  0  0  0  0
   -4.0891   26.5586    4.4924 C   0  0  0  0  0  0  0  0  0  0  0  0
   -4.2569   27.9199    4.2402 N   0  0  0  0  0  0  0  0  0  0  0  0
   -3.4298   28.9470    4.8662 C   0  0  2  0  0  0  0  0  0  0  0  0
   -3.7960   29.1154    6.3404 C   0  0  0  0  0  0  0  0  0  0  0  0
   -3.6813   30.2381    4.1217 C   0  0  0  0  0  0  0  0  0  0  0  0
   -3.0401   30.4755    2.7762 C   0  0  0  0  0  0  0  0  0  0  0  0
   -2.5870   31.2669    3.9713 C   0  0  0  0  0  0  0  0  0  0  0  0
   -5.1191   25.6776    4.1165 C   0  0  0  0  0  0  0  0  0  0  0  0
  1  2  2  3
  2  3  1  0
  2  4  1  0
  4  5  1  0
  5  6  2  0
  6  7  1  0
  7  8  2  0
  8  9  1  0
  9 10  1  0
 10 11  1  0
 11 12  1  1
 11 13  1  0
 13 14  1  0
 14 15  1  0
  9 16  2  0
 16  5  1  0
 15 13  1  0
M  END
>  <Energy>  (1397) 
-12.462101849490523

>  <Energy_Delta>  (1397) 
5.0430287661031521

>  <std_smi>  (1397) 
CC(=O)Nc1cccc(NC(C)C2CC2)c1

>  <enum_smi>  (1397) 
C=C(O)Nc1cccc(N[C@H](C)C2CC2)c1

>  <enum_code>  (1397) 
T

>  <parent_uuid>  (1397) 
80177037-97d9-4251-9583-a2fb747585df

>  <o3da_score>  (1397) 
89.393166037322203

>  <o3da_score_rel>  (1397) 
0.35588718245319051

>  <o3da_align>  (1397) 
0.40081455327837212

>  <RMSD>  (1397) 
0.34100742678611917

>  <CONVERGED>  (1397) 
0

>  <ENERGY>  (1397) 
-12.57776011599009

$$$$
37e4db15-f6a6-47e0-947e-57b49586fff9
     RDKit          3D

 16 17  0  0  0  0  0  0  0  0999 V2000
   -8.2380   22.9679    3.2111 C   0  0  0  0  0  0  0  0  0  0  0  0
   -7.0541   23.5579    3.0368 C   0  0  0  0  0  0  0  0  0  0  0  0
   -6.9012   24.3804    1.9487 O   0  0  0  0  0  0  0  0  0  0  0  0
   -5.9469   23.3219    3.8078 N   0  0  0  0  0  0  0  0  0  0  0  0
   -4.9710   24.2482    4.2430 C   0  0  0  0  0  0  0  0  0  0  0  0
   -3.7968   23.7501    4.8171 C   0  0  0  0  0  0  0  0  0  0  0  0
   -2.7724   24.6129    5.2011 C   0  0  0  0  0  0  0  0  0  0  0  0
   -2.9110   25.9909    5.0202 C   0  0  0  0  0  0  0  0  0  0  0  0
   -4.0800   26.5332    4.4812 C   0  0  0  0  0  0  0  0  0  0  0  0
   -4.2566   27.8908    4.2148 N   0  0  0  0  0  0  0  0  0  0  0  0
   -3.4700   28.9328    4.8685 C   0  0  2  0  0  0  0  0  0  0  0  0
   -3.8978   29.1025    6.3259 C   0  0  0  0  0  0  0  0  0  0  0  0
   -3.7096   30.2166    4.1078 C   0  0  0  0  0  0  0  0  0  0  0  0
   -2.6255   31.2611    3.9976 C   0  0  0  0  0  0  0  0  0  0  0  0
   -3.0170   30.4578    2.7887 C   0  0  0  0  0  0  0  0  0  0  0  0
   -5.0821   25.6366    4.0665 C   0  0  0  0  0  0  0  0  0  0  0  0
  1  2  2  3
  2  3  1  0
  2  4  1  0
  4  5  1  0
  5  6  2  0
  6  7  1  0
  7  8  2  0
  8  9  1  0
  9 10  1  0
 10 11  1  0
 11 12  1  1
 11 13  1  0
 13 14  1  0
 14 15  1  0
  9 16  2  0
 16  5  1  0
 15 13  1  0
M  END
>  <Energy>  (1398) 
-12.418762870734554

>  <Energy_Delta>  (1398) 
5.0863677448591211

>  <std_smi>  (1398) 
CC(=O)Nc1cccc(NC(C)C2CC2)c1

>  <enum_smi>  (1398) 
C=C(O)Nc1cccc(N[C@H](C)C2CC2)c1

>  <enum_code>  (1398) 
T

>  <parent_uuid>  (1398) 
80177037-97d9-4251-9583-a2fb747585df

>  <o3da_score>  (1398) 
90.243600127193517

>  <o3da_score_rel>  (1398) 
0.35927288412953656

>  <o3da_align>  (1398) 
0.3732660956771558

>  <RMSD>  (1398) 
0.41880993932288363

>  <CONVERGED>  (1398) 
0

>  <ENERGY>  (1398) 
-17.783295656503249

$$$$
37e4db15-f6a6-47e0-947e-57b49586fff9
     RDKit          3D

 16 17  0  0  0  0  0  0  0  0999 V2000
    0.0320   22.5266    6.2516 C   0  0  0  0  0  0  0  0  0  0  0  0
   -0.8304   23.0365    5.3707 C   0  0  0  0  0  0  0  0  0  0  0  0
   -1.1390   22.2860    4.2639 O   0  0  0  0  0  0  0  0  0  0  0  0
   -1.3547   24.3003    5.4347 N   0  0  0  0  0  0  0  0  0  0  0  0
   -2.6778   24.7083    5.1371 C   0  0  0  0  0  0  0  0  0  0  0  0
   -3.7167   23.8135    4.8736 C   0  0  0  0  0  0  0  0  0  0  0  0
   -4.9805   24.2854    4.5320 C   0  0  0  0  0  0  0  0  0  0  0  0
   -5.2132   25.6594    4.4535 C   0  0  0  0  0  0  0  0  0  0  0  0
   -4.2073   26.5972    4.7328 C   0  0  0  0  0  0  0  0  0  0  0  0
   -4.5145   27.9400    4.5639 N   0  0  0  0  0  0  0  0  0  0  0  0
   -3.7197   29.1078    4.9401 C   0  0  2  0  0  0  0  0  0  0  0  0
   -2.5022   29.3095    4.0460 C   0  0  0  0  0  0  0  0  0  0  0  0
   -3.3906   29.1158    6.4089 C   0  0  0  0  0  0  0  0  0  0  0  0
   -4.4754   29.3413    7.4349 C   0  0  0  0  0  0  0  0  0  0  0  0
   -3.4361   30.4013    7.2006 C   0  0  0  0  0  0  0  0  0  0  0  0
   -2.9403   26.0905    5.0394 C   0  0  0  0  0  0  0  0  0  0  0  0
  1  2  2  3
  2  3  1  0
  2  4  1  0
  4  5  1  0
  5  6  2  0
  6  7  1  0
  7  8  2  0
  8  9  1  0
  9 10  1  0
 10 11  1  0
 11 12  1  6
 11 13  1  0
 13 14  1  0
 14 15  1  0
  9 16  2  0
 16  5  1  0
 15 13  1  0
M  END
>  <Energy>  (1399) 
-12.399669583171713

>  <Energy_Delta>  (1399) 
5.105461032421962

>  <std_smi>  (1399) 
CC(=O)Nc1cccc(NC(C)C2CC2)c1

>  <enum_smi>  (1399) 
C=C(O)Nc1cccc(N[C@H](C)C2CC2)c1

>  <enum_code>  (1399) 
T

>  <parent_uuid>  (1399) 
80177037-97d9-4251-9583-a2fb747585df

>  <o3da_score>  (1399) 
79.126314831077195

>  <o3da_score_rel>  (1399) 
0.31501335606996145

>  <o3da_align>  (1399) 
0.228781180115879

>  <RMSD>  (1399) 
0.17782109890430942

>  <CONVERGED>  (1399) 
0

>  <ENERGY>  (1399) 
-12.842027752588024

$$$$
37e4db15-f6a6-47e0-947e-57b49586fff9
     RDKit          3D

 16 17  0  0  0  0  0  0  0  0999 V2000
    0.0321   22.5266    6.2515 C   0  0  0  0  0  0  0  0  0  0  0  0
   -0.8304   23.0365    5.3706 C   0  0  0  0  0  0  0  0  0  0  0  0
   -1.1390   22.2860    4.2638 O   0  0  0  0  0  0  0  0  0  0  0  0
   -1.3547   24.3003    5.4347 N   0  0  0  0  0  0  0  0  0  0  0  0
   -2.6778   24.7083    5.1371 C   0  0  0  0  0  0  0  0  0  0  0  0
   -3.7167   23.8135    4.8736 C   0  0  0  0  0  0  0  0  0  0  0  0
   -4.9805   24.2854    4.5320 C   0  0  0  0  0  0  0  0  0  0  0  0
   -5.2132   25.6594    4.4535 C   0  0  0  0  0  0  0  0  0  0  0  0
   -4.2073   26.5972    4.7329 C   0  0  0  0  0  0  0  0  0  0  0  0
   -4.5145   27.9400    4.5639 N   0  0  0  0  0  0  0  0  0  0  0  0
   -3.7197   29.1078    4.9401 C   0  0  2  0  0  0  0  0  0  0  0  0
   -2.5022   29.3095    4.0460 C   0  0  0  0  0  0  0  0  0  0  0  0
   -3.3905   29.1158    6.4089 C   0  0  0  0  0  0  0  0  0  0  0  0
   -3.4361   30.4012    7.2006 C   0  0  0  0  0  0  0  0  0  0  0  0
   -4.4753   29.3413    7.4350 C   0  0  0  0  0  0  0  0  0  0  0  0
   -2.9403   26.0905    5.0394 C   0  0  0  0  0  0  0  0  0  0  0  0
  1  2  2  3
  2  3  1  0
  2  4  1  0
  4  5  1  0
  5  6  2  0
  6  7  1  0
  7  8  2  0
  8  9  1  0
  9 10  1  0
 10 11  1  0
 11 12  1  6
 11 13  1  0
 13 14  1  0
 14 15  1  0
  9 16  2  0
 16  5  1  0
 15 13  1  0
M  END
>  <Energy>  (1400) 
-12.399669582979289

>  <Energy_Delta>  (1400) 
5.1054610326143859

>  <std_smi>  (1400) 
CC(=O)Nc1cccc(NC(C)C2CC2)c1

>  <enum_smi>  (1400) 
C=C(O)Nc1cccc(N[C@H](C)C2CC2)c1

>  <enum_code>  (1400) 
T

>  <parent_uuid>  (1400) 
80177037-97d9-4251-9583-a2fb747585df

>  <o3da_score>  (1400) 
79.126305045572352

>  <o3da_score_rel>  (1400) 
0.31501331711244485

>  <o3da_align>  (1400) 
0.22878099020103501

>  <RMSD>  (1400) 
0.17782087223452125

>  <CONVERGED>  (1400) 
0

>  <ENERGY>  (1400) 
-12.84202775257083

$$$$
37e4db15-f6a6-47e0-947e-57b49586fff9
     RDKit          3D

 16 17  0  0  0  0  0  0  0  0999 V2000
   -4.8219   21.7052    2.6076 C   0  0  0  0  0  0  0  0  0  0  0  0
   -5.8398   22.1500    3.3467 C   0  0  0  0  0  0  0  0  0  0  0  0
   -6.9526   21.3502    3.4328 O   0  0  0  0  0  0  0  0  0  0  0  0
   -5.9568   23.3354    4.0227 N   0  0  0  0  0  0  0  0  0  0  0  0
   -4.9315   24.2320    4.3931 C   0  0  0  0  0  0  0  0  0  0  0  0
   -3.6744   23.7979    4.8182 C   0  0  0  0  0  0  0  0  0  0  0  0
   -2.6892   24.7183    5.1714 C   0  0  0  0  0  0  0  0  0  0  0  0
   -2.9577   26.0886    5.1271 C   0  0  0  0  0  0  0  0  0  0  0  0
   -4.2204   26.5646    4.7667 C   0  0  0  0  0  0  0  0  0  0  0  0
   -4.5401   27.9171    4.6468 N   0  0  0  0  0  0  0  0  0  0  0  0
   -3.7568   28.9763    5.2797 C   0  0  2  0  0  0  0  0  0  0  0  0
   -4.0268   29.0087    6.7853 C   0  0  0  0  0  0  0  0  0  0  0  0
   -4.0787   30.3294    4.6755 C   0  0  0  0  0  0  0  0  0  0  0  0
   -4.5291   30.4922    3.2419 C   0  0  0  0  0  0  0  0  0  0  0  0
   -5.4848   30.7919    4.3661 C   0  0  0  0  0  0  0  0  0  0  0  0
   -5.1831   25.6154    4.3767 C   0  0  0  0  0  0  0  0  0  0  0  0
  1  2  2  3
  2  3  1  0
  2  4  1  0
  4  5  1  0
  5  6  2  0
  6  7  1  0
  7  8  2  0
  8  9  1  0
  9 10  1  0
 10 11  1  0
 11 12  1  1
 11 13  1  0
 13 14  1  0
 14 15  1  0
  9 16  2  0
 16  5  1  0
 15 13  1  0
M  END
>  <Energy>  (1401) 
-12.393349076653967

>  <Energy_Delta>  (1401) 
5.1117815389397077

>  <std_smi>  (1401) 
CC(=O)Nc1cccc(NC(C)C2CC2)c1

>  <enum_smi>  (1401) 
C=C(O)Nc1cccc(N[C@H](C)C2CC2)c1

>  <enum_code>  (1401) 
T

>  <parent_uuid>  (1401) 
80177037-97d9-4251-9583-a2fb747585df

>  <o3da_score>  (1401) 
73.283384378833162

>  <o3da_score_rel>  (1401) 
0.29175180098586362

>  <o3da_align>  (1401) 
0.17956201960967352

>  <RMSD>  (1401) 
0.15186641525051955

>  <CONVERGED>  (1401) 
0

>  <ENERGY>  (1401) 
-11.081302620921969

$$$$
37e4db15-f6a6-47e0-947e-57b49586fff9
     RDKit          3D

 16 17  0  0  0  0  0  0  0  0999 V2000
   -5.7290   21.4664    5.1202 C   0  0  0  0  0  0  0  0  0  0  0  0
   -6.0748   22.1036    4.0001 C   0  0  0  0  0  0  0  0  0  0  0  0
   -6.8196   21.4050    3.0821 O   0  0  0  0  0  0  0  0  0  0  0  0
   -5.8201   23.3989    3.6354 N   0  0  0  0  0  0  0  0  0  0  0  0
   -4.8606   24.2832    4.1734 C   0  0  0  0  0  0  0  0  0  0  0  0
   -3.5923   23.8585    4.5738 C   0  0  0  0  0  0  0  0  0  0  0  0
   -2.6771   24.7650    5.1053 C   0  0  0  0  0  0  0  0  0  0  0  0
   -3.0111   26.1168    5.2198 C   0  0  0  0  0  0  0  0  0  0  0  0
   -4.2444   26.5959    4.7732 C   0  0  0  0  0  0  0  0  0  0  0  0
   -4.6607   27.9217    4.9099 N   0  0  0  0  0  0  0  0  0  0  0  0
   -3.7165   29.0363    4.9730 C   0  0  2  0  0  0  0  0  0  0  0  0
   -4.4289   30.2178    5.6377 C   0  0  0  0  0  0  0  0  0  0  0  0
   -3.2919   29.4132    3.5753 C   0  0  0  0  0  0  0  0  0  0  0  0
   -2.0272   30.2065    3.3480 C   0  0  0  0  0  0  0  0  0  0  0  0
   -2.0951   28.7685    2.9188 C   0  0  0  0  0  0  0  0  0  0  0  0
   -5.1650   25.6520    4.2815 C   0  0  0  0  0  0  0  0  0  0  0  0
  1  2  2  3
  2  3  1  0
  2  4  1  0
  4  5  1  0
  5  6  2  0
  6  7  1  0
  7  8  2  0
  8  9  1  0
  9 10  1  0
 10 11  1  0
 11 12  1  6
 11 13  1  0
 13 14  1  0
 14 15  1  0
  9 16  2  0
 16  5  1  0
 15 13  1  0
M  END
>  <Energy>  (1402) 
-11.998991412715661

>  <Energy_Delta>  (1402) 
5.5061392028780141

>  <std_smi>  (1402) 
CC(=O)Nc1cccc(NC(C)C2CC2)c1

>  <enum_smi>  (1402) 
C=C(O)Nc1cccc(N[C@H](C)C2CC2)c1

>  <enum_code>  (1402) 
T

>  <parent_uuid>  (1402) 
80177037-97d9-4251-9583-a2fb747585df

>  <o3da_score>  (1402) 
91.481031221277846

>  <o3da_score_rel>  (1402) 
0.36419927710872446

>  <o3da_align>  (1402) 
0.27269958125219768

>  <RMSD>  (1402) 
6.1163543733726687e-05

>  <CONVERGED>  (1402) 
0

>  <ENERGY>  (1402) 
-11.998991413428534

$$$$
37e4db15-f6a6-47e0-947e-57b49586fff9
     RDKit          3D

 16 17  0  0  0  0  0  0  0  0999 V2000
   -3.7279   28.8752    6.6499 C   0  0  0  0  0  0  0  0  0  0  0  0
   -3.9532   28.9759    5.3387 C   0  0  0  0  0  0  0  0  0  0  0  0
   -3.9351   30.2351    4.7913 O   0  0  0  0  0  0  0  0  0  0  0  0
   -4.2422   27.9851    4.4391 N   0  0  0  0  0  0  0  0  0  0  0  0
   -4.0604   26.5927    4.5849 C   0  0  0  0  0  0  0  0  0  0  0  0
   -2.9468   26.0500    5.2316 C   0  0  0  0  0  0  0  0  0  0  0  0
   -2.7848   24.6698    5.3252 C   0  0  0  0  0  0  0  0  0  0  0  0
   -3.7443   23.8174    4.7779 C   0  0  0  0  0  0  0  0  0  0  0  0
   -4.8910   24.3184    4.1476 C   0  0  0  0  0  0  0  0  0  0  0  0
   -5.7760   23.4102    3.5680 N   0  0  0  0  0  0  0  0  0  0  0  0
   -7.1474   23.7579    3.1985 C   0  0  2  0  0  0  0  0  0  0  0  0
   -8.0063   23.9310    4.4508 C   0  0  0  0  0  0  0  0  0  0  0  0
   -7.6145   22.6771    2.2484 C   0  0  0  0  0  0  0  0  0  0  0  0
   -8.0179   21.2968    2.7145 C   0  0  0  0  0  0  0  0  0  0  0  0
   -9.0491   22.2196    2.1220 C   0  0  0  0  0  0  0  0  0  0  0  0
   -5.0069   25.7107    4.0290 C   0  0  0  0  0  0  0  0  0  0  0  0
  1  2  2  3
  2  3  1  0
  2  4  1  0
  4  5  1  0
  5  6  2  0
  6  7  1  0
  7  8  2  0
  8  9  1  0
  9 10  1  0
 10 11  1  0
 11 12  1  1
 11 13  1  0
 13 14  1  0
 14 15  1  0
  9 16  2  0
 16  5  1  0
 15 13  1  0
M  END
>  <Energy>  (1403) 
-11.713963796310946

>  <Energy_Delta>  (1403) 
5.7911668192827293

>  <std_smi>  (1403) 
CC(=O)Nc1cccc(NC(C)C2CC2)c1

>  <enum_smi>  (1403) 
C=C(O)Nc1cccc(N[C@H](C)C2CC2)c1

>  <enum_code>  (1403) 
T

>  <parent_uuid>  (1403) 
80177037-97d9-4251-9583-a2fb747585df

>  <o3da_score>  (1403) 
77.657582659738679

>  <o3da_score_rel>  (1403) 
0.30916611989513137

>  <o3da_align>  (1403) 
0.21219195144884009

>  <RMSD>  (1403) 
0.14634307824463227

>  <CONVERGED>  (1403) 
0

>  <ENERGY>  (1403) 
-10.38081552007373

$$$$
37e4db15-f6a6-47e0-947e-57b49586fff9
     RDKit          3D

 16 17  0  0  0  0  0  0  0  0999 V2000
   -0.7293   25.5225    7.3976 C   0  0  0  0  0  0  0  0  0  0  0  0
   -0.4613   24.7391    6.3512 C   0  0  0  0  0  0  0  0  0  0  0  0
    0.8290   24.2897    6.2144 O   0  0  0  0  0  0  0  0  0  0  0  0
   -1.3143   24.2762    5.3845 N   0  0  0  0  0  0  0  0  0  0  0  0
   -2.6037   24.7543    5.0623 C   0  0  0  0  0  0  0  0  0  0  0  0
   -3.6009   23.8429    4.6991 C   0  0  0  0  0  0  0  0  0  0  0  0
   -4.8820   24.2866    4.3808 C   0  0  0  0  0  0  0  0  0  0  0  0
   -5.1713   25.6514    4.4045 C   0  0  0  0  0  0  0  0  0  0  0  0
   -4.1898   26.6019    4.7160 C   0  0  0  0  0  0  0  0  0  0  0  0
   -4.5675   27.9398    4.7647 N   0  0  0  0  0  0  0  0  0  0  0  0
   -3.6426   29.0479    4.9705 C   0  0  2  0  0  0  0  0  0  0  0  0
   -4.4146   30.1787    5.6605 C   0  0  0  0  0  0  0  0  0  0  0  0
   -3.0228   29.5624    3.6914 C   0  0  0  0  0  0  0  0  0  0  0  0
   -2.8694   28.7502    2.4246 C   0  0  0  0  0  0  0  0  0  0  0  0
   -3.8482   29.8908    2.4669 C   0  0  0  0  0  0  0  0  0  0  0  0
   -2.9179   26.1254    5.0620 C   0  0  0  0  0  0  0  0  0  0  0  0
  1  2  2  3
  2  3  1  0
  2  4  1  0
  4  5  1  0
  5  6  2  0
  6  7  1  0
  7  8  2  0
  8  9  1  0
  9 10  1  0
 10 11  1  0
 11 12  1  6
 11 13  1  0
 13 14  1  0
 14 15  1  0
  9 16  2  0
 16  5  1  0
 15 13  1  0
M  END
>  <Energy>  (1404) 
-11.585889049958389

>  <Energy_Delta>  (1404) 
5.9192415656352857

>  <std_smi>  (1404) 
CC(=O)Nc1cccc(NC(C)C2CC2)c1

>  <enum_smi>  (1404) 
C=C(O)Nc1cccc(N[C@H](C)C2CC2)c1

>  <enum_code>  (1404) 
T

>  <parent_uuid>  (1404) 
80177037-97d9-4251-9583-a2fb747585df

>  <o3da_score>  (1404) 
93.99921507841708

>  <o3da_score_rel>  (1404) 
0.37422453292573205

>  <o3da_align>  (1404) 
0.21714430929440898

>  <RMSD>  (1404) 
0.13877149201331787

>  <CONVERGED>  (1404) 
0

>  <ENERGY>  (1404) 
-10.358963312643723

$$$$
37e4db15-f6a6-47e0-947e-57b49586fff9
     RDKit          3D

 16 17  0  0  0  0  0  0  0  0999 V2000
   -1.8232   22.2700    6.8369 C   0  0  0  0  0  0  0  0  0  0  0  0
   -1.0406   23.0701    6.1105 C   0  0  0  0  0  0  0  0  0  0  0  0
    0.2932   22.7517    6.0392 O   0  0  0  0  0  0  0  0  0  0  0  0
   -1.3734   24.2137    5.4346 N   0  0  0  0  0  0  0  0  0  0  0  0
   -2.6589   24.6595    5.0556 C   0  0  0  0  0  0  0  0  0  0  0  0
   -3.6502   23.7821    4.6084 C   0  0  0  0  0  0  0  0  0  0  0  0
   -4.9049   24.2603    4.2397 C   0  0  0  0  0  0  0  0  0  0  0  0
   -5.1725   25.6284    4.2976 C   0  0  0  0  0  0  0  0  0  0  0  0
   -4.1935   26.5491    4.6950 C   0  0  0  0  0  0  0  0  0  0  0  0
   -4.5516   27.8903    4.7736 N   0  0  0  0  0  0  0  0  0  0  0  0
   -3.6262   28.9803    5.0557 C   0  0  2  0  0  0  0  0  0  0  0  0
   -4.4171   30.0994    5.7432 C   0  0  0  0  0  0  0  0  0  0  0  0
   -2.9410   29.5247    3.8232 C   0  0  0  0  0  0  0  0  0  0  0  0
   -3.7038   29.8919    2.5696 C   0  0  0  0  0  0  0  0  0  0  0  0
   -2.7301   28.7463    2.5435 C   0  0  0  0  0  0  0  0  0  0  0  0
   -2.9501   26.0372    5.0909 C   0  0  0  0  0  0  0  0  0  0  0  0
  1  2  2  3
  2  3  1  0
  2  4  1  0
  4  5  1  0
  5  6  2  0
  6  7  1  0
  7  8  2  0
  8  9  1  0
  9 10  1  0
 10 11  1  0
 11 12  1  6
 11 13  1  0
 13 14  1  0
 14 15  1  0
  9 16  2  0
 16  5  1  0
 15 13  1  0
M  END
>  <Energy>  (1405) 
-11.564896124053538

>  <Energy_Delta>  (1405) 
5.9402344915401368

>  <std_smi>  (1405) 
CC(=O)Nc1cccc(NC(C)C2CC2)c1

>  <enum_smi>  (1405) 
C=C(O)Nc1cccc(N[C@H](C)C2CC2)c1

>  <enum_code>  (1405) 
T

>  <parent_uuid>  (1405) 
80177037-97d9-4251-9583-a2fb747585df

>  <o3da_score>  (1405) 
86.919154915332868

>  <o3da_score_rel>  (1405) 
0.34603778471293101

>  <o3da_align>  (1405) 
0.17044106524058669

>  <RMSD>  (1405) 
0.1452387947727527

>  <CONVERGED>  (1405) 
0

>  <ENERGY>  (1405) 
-10.253404227701656

$$$$
37e4db15-f6a6-47e0-947e-57b49586fff9
     RDKit          3D

 16 17  0  0  0  0  0  0  0  0999 V2000
   -1.5043   33.6585    3.4747 C   0  0  0  0  0  0  0  0  0  0  0  0
   -1.1911   32.6673    2.6383 C   0  0  0  0  0  0  0  0  0  0  0  0
   -0.4779   32.9953    1.5116 O   0  0  0  0  0  0  0  0  0  0  0  0
   -1.5147   31.3391    2.7210 N   0  0  0  0  0  0  0  0  0  0  0  0
   -1.9594   30.6194    3.8509 C   0  0  0  0  0  0  0  0  0  0  0  0
   -1.4662   30.8609    5.1346 C   0  0  0  0  0  0  0  0  0  0  0  0
   -1.9358   30.1285    6.2234 C   0  0  0  0  0  0  0  0  0  0  0  0
   -2.8902   29.1254    6.0377 C   0  0  0  0  0  0  0  0  0  0  0  0
   -3.3657   28.8096    4.7629 C   0  0  0  0  0  0  0  0  0  0  0  0
   -4.3563   27.8612    4.5148 N   0  0  0  0  0  0  0  0  0  0  0  0
   -4.7018   26.8000    5.4593 C   0  0  2  0  0  0  0  0  0  0  0  0
   -3.6027   25.7383    5.4874 C   0  0  0  0  0  0  0  0  0  0  0  0
   -6.0665   26.2951    5.0446 C   0  0  0  0  0  0  0  0  0  0  0  0
   -6.5393   24.8726    5.2350 C   0  0  0  0  0  0  0  0  0  0  0  0
   -6.2774   25.3956    3.8481 C   0  0  0  0  0  0  0  0  0  0  0  0
   -2.9046   29.5908    3.6878 C   0  0  0  0  0  0  0  0  0  0  0  0
  1  2  2  3
  2  3  1  0
  2  4  1  0
  4  5  1  0
  5  6  2  0
  6  7  1  0
  7  8  2  0
  8  9  1  0
  9 10  1  0
 10 11  1  0
 11 12  1  6
 11 13  1  0
 13 14  1  0
 14 15  1  0
  9 16  2  0
 16  5  1  0
 15 13  1  0
M  END
>  <Energy>  (1406) 
-11.563694180168035

>  <Energy_Delta>  (1406) 
5.9414364354256399

>  <std_smi>  (1406) 
CC(=O)Nc1cccc(NC(C)C2CC2)c1

>  <enum_smi>  (1406) 
C=C(O)Nc1cccc(N[C@H](C)C2CC2)c1

>  <enum_code>  (1406) 
T

>  <parent_uuid>  (1406) 
80177037-97d9-4251-9583-a2fb747585df

>  <o3da_score>  (1406) 
80.485379106783284

>  <o3da_score_rel>  (1406) 
0.32042398841798558

>  <o3da_align>  (1406) 
0.41182362856763172

>  <RMSD>  (1406) 
0.1512482807459527

>  <CONVERGED>  (1406) 
0

>  <ENERGY>  (1406) 
-10.258928624417893

$$$$
