379ad27e-0a8f-467c-adc9-060eab9b7ccf
 OpenBabel11192109393D

 17 18  0  0  0  0  0  0  0  0999 V2000
   10.8591   -3.1912   20.9576 C   0  0  0  0  0  0  0  0  0  0  0  0
    9.8045   -2.3094   20.4680 N   0  0  0  0  0  0  0  0  0  0  0  0
    9.3859   -1.3147   21.4793 C   0  0  2  0  0  0  0  0  0  0  0  0
    8.0864   -0.6182   21.0589 C   0  0  0  0  0  0  0  0  0  0  0  0
    7.1433   -0.2500   22.0353 C   0  0  0  0  0  0  0  0  0  0  0  0
    5.9592    0.4019   21.6813 C   0  0  0  0  0  0  0  0  0  0  0  0
    5.6995    0.7005   20.3453 C   0  0  0  0  0  0  0  0  0  0  0  0
    6.6266    0.3488   19.3681 C   0  0  0  0  0  0  0  0  0  0  0  0
    6.3075    0.7186   17.7178 Cl  0  0  0  0  0  0  0  0  0  0  0  0
    7.8108   -0.3017   19.7158 C   0  0  0  0  0  0  0  0  0  0  0  0
   10.4793   -0.3063   21.8081 C   0  0  0  0  0  0  0  0  0  0  0  0
   11.0712    0.4353   20.7803 C   0  0  0  0  0  0  0  0  0  0  0  0
   12.0385    1.3668   20.9508 N   0  0  0  0  0  0  0  0  0  0  0  0
   12.4499    1.5785   22.2134 C   0  0  0  0  0  0  0  0  0  0  0  0
   11.9443    0.8998   23.3098 C   0  0  0  0  0  0  0  0  0  0  0  0
   10.9439   -0.0630   23.1173 C   0  0  0  0  0  0  0  0  0  0  0  0
   10.4155   -0.8032   24.3134 C   0  0  0  0  0  0  0  0  0  0  0  0
  1  2  1  0  0  0  0
  3  2  1  6  0  0  0
  3  4  1  0  0  0  0
  3 11  1  0  0  0  0
  4  5  2  0  0  0  0
  5  6  1  0  0  0  0
  6  7  2  0  0  0  0
  7  8  1  0  0  0  0
  8  9  1  0  0  0  0
  8 10  2  0  0  0  0
 10  4  1  0  0  0  0
 11 12  2  0  0  0  0
 12 13  1  0  0  0  0
 13 14  2  0  0  0  0
 14 15  1  0  0  0  0
 15 16  2  0  0  0  0
 16 17  1  0  0  0  0
 16 11  1  0  0  0  0
M  END
>  <std_smi>
CNC(c1cccc(Cl)c1)c1cnccc1C

>  <enum_smi>
CNC(c1cccc(Cl)c1)c1cnccc1C

>  <enum_code>
B

>  <Energy>
39.018750703274193

>  <Energy_Delta>
0.2806018203590952

>  <Shape-it::Tanimoto>
0.717076

>  <Shape-it::Tversky_Ref>
0.974197

>  <Shape-it::Tversky_Db>
0.730959

$$$$
379ad27e-0a8f-467c-adc9-060eab9b7ccf
 OpenBabel11192109393D

 17 18  0  0  0  0  0  0  0  0999 V2000
    6.8659   -1.0364   23.4486 C   0  0  0  0  0  0  0  0  0  0  0  0
    8.1192   -1.4577   22.8300 N   0  0  0  0  0  0  0  0  0  0  0  0
    8.9084   -0.3132   22.3278 C   0  0  2  0  0  0  0  0  0  0  0  0
    8.3257    0.3315   21.0686 C   0  0  0  0  0  0  0  0  0  0  0  0
    8.5440    1.6995   20.8242 C   0  0  0  0  0  0  0  0  0  0  0  0
    8.0440    2.3120   19.6724 C   0  0  0  0  0  0  0  0  0  0  0  0
    7.3218    1.5657   18.7430 C   0  0  0  0  0  0  0  0  0  0  0  0
    7.1050    0.2088   18.9674 C   0  0  0  0  0  0  0  0  0  0  0  0
    6.2150   -0.7136   17.8189 Cl  0  0  0  0  0  0  0  0  0  0  0  0
    7.6032   -0.4081   20.1148 C   0  0  0  0  0  0  0  0  0  0  0  0
   10.3621   -0.7316   22.1245 C   0  0  0  0  0  0  0  0  0  0  0  0
   10.6702   -1.7470   21.2124 C   0  0  0  0  0  0  0  0  0  0  0  0
   11.9173   -2.2023   20.9494 N   0  0  0  0  0  0  0  0  0  0  0  0
   12.9235   -1.6203   21.6260 C   0  0  0  0  0  0  0  0  0  0  0  0
   12.7399   -0.6112   22.5566 C   0  0  0  0  0  0  0  0  0  0  0  0
   11.4422   -0.1522   22.8219 C   0  0  0  0  0  0  0  0  0  0  0  0
   11.2566    0.9358   23.8420 C   0  0  0  0  0  0  0  0  0  0  0  0
  1  2  1  0  0  0  0
  3  2  1  6  0  0  0
  3  4  1  0  0  0  0
  3 11  1  0  0  0  0
  4  5  2  0  0  0  0
  5  6  1  0  0  0  0
  6  7  2  0  0  0  0
  7  8  1  0  0  0  0
  8  9  1  0  0  0  0
  8 10  2  0  0  0  0
 10  4  1  0  0  0  0
 11 12  2  0  0  0  0
 12 13  1  0  0  0  0
 13 14  2  0  0  0  0
 14 15  1  0  0  0  0
 15 16  2  0  0  0  0
 16 17  1  0  0  0  0
 16 11  1  0  0  0  0
M  END
>  <std_smi>
CNC(c1cccc(Cl)c1)c1cnccc1C

>  <enum_smi>
CNC(c1cccc(Cl)c1)c1cnccc1C

>  <enum_code>
B

>  <Energy>
39.235140278540115

>  <Energy_Delta>
0.49699139562501671

>  <Shape-it::Tanimoto>
0.711568

>  <Shape-it::Tversky_Ref>
0.96834

>  <Shape-it::Tversky_Db>
0.728517

$$$$
379ad27e-0a8f-467c-adc9-060eab9b7ccf
 OpenBabel11192109393D

 17 18  0  0  0  0  0  0  0  0999 V2000
    8.7892    2.3456   23.6832 C   0  0  0  0  0  0  0  0  0  0  0  0
    9.3633    1.0263   23.4361 N   0  0  0  0  0  0  0  0  0  0  0  0
    9.5689    0.7669   21.9960 C   0  0  2  0  0  0  0  0  0  0  0  0
    8.3004    0.3986   21.2239 C   0  0  0  0  0  0  0  0  0  0  0  0
    7.1235   -0.0401   21.8559 C   0  0  0  0  0  0  0  0  0  0  0  0
    5.9863   -0.3728   21.1150 C   0  0  0  0  0  0  0  0  0  0  0  0
    6.0057   -0.2746   19.7256 C   0  0  0  0  0  0  0  0  0  0  0  0
    7.1633    0.1547   19.0832 C   0  0  0  0  0  0  0  0  0  0  0  0
    7.1917    0.2764   17.3667 Cl  0  0  0  0  0  0  0  0  0  0  0  0
    8.3015    0.4885   19.8189 C   0  0  0  0  0  0  0  0  0  0  0  0
   10.6991   -0.2407   21.7886 C   0  0  0  0  0  0  0  0  0  0  0  0
   11.8508    0.2016   21.1244 C   0  0  0  0  0  0  0  0  0  0  0  0
   12.9380   -0.5556   20.8561 N   0  0  0  0  0  0  0  0  0  0  0  0
   12.8875   -1.8365   21.2626 C   0  0  0  0  0  0  0  0  0  0  0  0
   11.8061   -2.3865   21.9296 C   0  0  0  0  0  0  0  0  0  0  0  0
   10.6904   -1.5842   22.2150 C   0  0  0  0  0  0  0  0  0  0  0  0
    9.5253   -2.2225   22.9176 C   0  0  0  0  0  0  0  0  0  0  0  0
  1  2  1  0  0  0  0
  3  2  1  1  0  0  0
  3  4  1  0  0  0  0
  3 11  1  0  0  0  0
  4  5  2  0  0  0  0
  5  6  1  0  0  0  0
  6  7  2  0  0  0  0
  7  8  1  0  0  0  0
  8  9  1  0  0  0  0
  8 10  2  0  0  0  0
 10  4  1  0  0  0  0
 11 12  2  0  0  0  0
 12 13  1  0  0  0  0
 13 14  2  0  0  0  0
 14 15  1  0  0  0  0
 15 16  2  0  0  0  0
 16 17  1  0  0  0  0
 16 11  1  0  0  0  0
M  END
>  <std_smi>
CNC(c1cccc(Cl)c1)c1cnccc1C

>  <enum_smi>
CNC(c1cccc(Cl)c1)c1cnccc1C

>  <enum_code>
B

>  <Energy>
40.651645869047741

>  <Energy_Delta>
1.9134969861326425

>  <Shape-it::Tanimoto>
0.703863

>  <Shape-it::Tversky_Ref>
0.966451

>  <Shape-it::Tversky_Db>
0.721491

$$$$
379ad27e-0a8f-467c-adc9-060eab9b7ccf
 OpenBabel11192109393D

 17 18  0  0  0  0  0  0  0  0999 V2000
    8.2178   -0.0645   17.9622 C   0  0  0  0  0  0  0  0  0  0  0  0
    9.0004    0.4329   19.0890 N   0  0  0  0  0  0  0  0  0  0  0  0
    8.9138   -0.4580   20.2597 C   0  0  1  0  0  0  0  0  0  0  0  0
   10.1451   -0.2672   21.1506 C   0  0  0  0  0  0  0  0  0  0  0  0
   10.2127    0.7140   22.1531 C   0  0  0  0  0  0  0  0  0  0  0  0
   11.3642    0.8709   22.9300 C   0  0  0  0  0  0  0  0  0  0  0  0
   12.4726    0.0557   22.7116 C   0  0  0  0  0  0  0  0  0  0  0  0
   12.4260   -0.9127   21.7138 C   0  0  0  0  0  0  0  0  0  0  0  0
   13.7950   -1.9168   21.4322 Cl  0  0  0  0  0  0  0  0  0  0  0  0
   11.2787   -1.0749   20.9360 C   0  0  0  0  0  0  0  0  0  0  0  0
    7.5931   -0.4059   21.0257 C   0  0  0  0  0  0  0  0  0  0  0  0
    7.1942   -1.5854   21.6712 C   0  0  0  0  0  0  0  0  0  0  0  0
    6.0622   -1.7403   22.3946 N   0  0  0  0  0  0  0  0  0  0  0  0
    5.2705   -0.6591   22.4989 C   0  0  0  0  0  0  0  0  0  0  0  0
    5.5652    0.5644   21.9220 C   0  0  0  0  0  0  0  0  0  0  0  0
    6.7504    0.7146   21.1837 C   0  0  0  0  0  0  0  0  0  0  0  0
    7.0206    2.0611   20.5695 C   0  0  0  0  0  0  0  0  0  0  0  0
  1  2  1  0  0  0  0
  3  2  1  1  0  0  0
  3  4  1  0  0  0  0
  3 11  1  0  0  0  0
  4  5  2  0  0  0  0
  5  6  1  0  0  0  0
  6  7  2  0  0  0  0
  7  8  1  0  0  0  0
  8  9  1  0  0  0  0
  8 10  2  0  0  0  0
 10  4  1  0  0  0  0
 11 12  2  0  0  0  0
 12 13  1  0  0  0  0
 13 14  2  0  0  0  0
 14 15  1  0  0  0  0
 15 16  2  0  0  0  0
 16 17  1  0  0  0  0
 16 11  1  0  0  0  0
M  END
>  <std_smi>
CNC(c1cccc(Cl)c1)c1cnccc1C

>  <enum_smi>
CNC(c1cccc(Cl)c1)c1cnccc1C

>  <enum_code>
B

>  <Energy>
41.462318410952285

>  <Energy_Delta>
2.7241695280371871

>  <Shape-it::Tanimoto>
0.729509

>  <Shape-it::Tversky_Ref>
0.981798

>  <Shape-it::Tversky_Db>
0.73951

$$$$
379ad27e-0a8f-467c-adc9-060eab9b7ccf
 OpenBabel11192109393D

 17 18  0  0  0  0  0  0  0  0999 V2000
    8.7161   -3.0879   19.6966 C   0  0  0  0  0  0  0  0  0  0  0  0
    9.7486   -2.2004   20.2148 N   0  0  0  0  0  0  0  0  0  0  0  0
    9.2521   -1.2834   21.2531 C   0  0  2  0  0  0  0  0  0  0  0  0
    8.4778   -0.1155   20.6387 C   0  0  0  0  0  0  0  0  0  0  0  0
    9.1332    0.9338   19.9711 C   0  0  0  0  0  0  0  0  0  0  0  0
    8.4085    1.9864   19.4070 C   0  0  0  0  0  0  0  0  0  0  0  0
    7.0178    2.0042   19.4971 C   0  0  0  0  0  0  0  0  0  0  0  0
    6.3567    0.9689   20.1522 C   0  0  0  0  0  0  0  0  0  0  0  0
    4.6394    0.9854   20.2607 Cl  0  0  0  0  0  0  0  0  0  0  0  0
    7.0744   -0.0844   20.7199 C   0  0  0  0  0  0  0  0  0  0  0  0
   10.3095   -0.8124   22.2569 C   0  0  0  0  0  0  0  0  0  0  0  0
    9.8195   -0.3490   23.4902 C   0  0  0  0  0  0  0  0  0  0  0  0
   10.5691    0.1174   24.5148 N   0  0  0  0  0  0  0  0  0  0  0  0
   11.8970    0.1331   24.3176 C   0  0  0  0  0  0  0  0  0  0  0  0
   12.5003   -0.2884   23.1452 C   0  0  0  0  0  0  0  0  0  0  0  0
   11.7085   -0.7638   22.0847 C   0  0  0  0  0  0  0  0  0  0  0  0
   12.4238   -1.2112   20.8411 C   0  0  0  0  0  0  0  0  0  0  0  0
  1  2  1  0  0  0  0
  3  2  1  6  0  0  0
  3  4  1  0  0  0  0
  3 11  1  0  0  0  0
  4  5  2  0  0  0  0
  5  6  1  0  0  0  0
  6  7  2  0  0  0  0
  7  8  1  0  0  0  0
  8  9  1  0  0  0  0
  8 10  2  0  0  0  0
 10  4  1  0  0  0  0
 11 12  2  0  0  0  0
 12 13  1  0  0  0  0
 13 14  2  0  0  0  0
 14 15  1  0  0  0  0
 15 16  2  0  0  0  0
 16 17  1  0  0  0  0
 16 11  1  0  0  0  0
M  END
>  <std_smi>
CNC(c1cccc(Cl)c1)c1cnccc1C

>  <enum_smi>
CNC(c1cccc(Cl)c1)c1cnccc1C

>  <enum_code>
B

>  <Energy>
42.756718189746465

>  <Energy_Delta>
4.0185693068313668

>  <Shape-it::Tanimoto>
0.70905

>  <Shape-it::Tversky_Ref>
0.969878

>  <Shape-it::Tversky_Db>
0.725016

$$$$
379ad27e-0a8f-467c-adc9-060eab9b7ccf
 OpenBabel11192109393D

 17 18  0  0  0  0  0  0  0  0999 V2000
    6.7989    1.1865   22.8393 C   0  0  0  0  0  0  0  0  0  0  0  0
    7.2048   -0.2089   22.8212 N   0  0  0  0  0  0  0  0  0  0  0  0
    8.2351   -0.5737   21.8309 C   0  0  2  0  0  0  0  0  0  0  0  0
    9.6866   -0.4554   22.3206 C   0  0  0  0  0  0  0  0  0  0  0  0
   10.0862    0.3362   23.4104 C   0  0  0  0  0  0  0  0  0  0  0  0
   11.4283    0.4024   23.7998 C   0  0  0  0  0  0  0  0  0  0  0  0
   12.3967   -0.3227   23.1091 C   0  0  0  0  0  0  0  0  0  0  0  0
   12.0201   -1.1139   22.0294 C   0  0  0  0  0  0  0  0  0  0  0  0
   13.2100   -2.0147   21.1733 Cl  0  0  0  0  0  0  0  0  0  0  0  0
   10.6832   -1.1830   21.6363 C   0  0  0  0  0  0  0  0  0  0  0  0
    7.9818   -0.0032   20.4379 C   0  0  0  0  0  0  0  0  0  0  0  0
    8.6458    1.1513   20.0097 C   0  0  0  0  0  0  0  0  0  0  0  0
    8.4794    1.7407   18.8031 N   0  0  0  0  0  0  0  0  0  0  0  0
    7.5990    1.1594   17.9678 C   0  0  0  0  0  0  0  0  0  0  0  0
    6.8738    0.0234   18.2849 C   0  0  0  0  0  0  0  0  0  0  0  0
    7.0528   -0.5715   19.5407 C   0  0  0  0  0  0  0  0  0  0  0  0
    6.2527   -1.7973   19.8853 C   0  0  0  0  0  0  0  0  0  0  0  0
  1  2  1  0  0  0  0
  3  2  1  1  0  0  0
  3  4  1  0  0  0  0
  3 11  1  0  0  0  0
  4  5  2  0  0  0  0
  5  6  1  0  0  0  0
  6  7  2  0  0  0  0
  7  8  1  0  0  0  0
  8  9  1  0  0  0  0
  8 10  2  0  0  0  0
 10  4  1  0  0  0  0
 11 12  2  0  0  0  0
 12 13  1  0  0  0  0
 13 14  2  0  0  0  0
 14 15  1  0  0  0  0
 15 16  2  0  0  0  0
 16 17  1  0  0  0  0
 16 11  1  0  0  0  0
M  END
>  <std_smi>
CNC(c1cccc(Cl)c1)c1cnccc1C

>  <enum_smi>
CNC(c1cccc(Cl)c1)c1cnccc1C

>  <enum_code>
B

>  <Energy>
44.192315210464614

>  <Energy_Delta>
5.4541663275495154

>  <Shape-it::Tanimoto>
0.729074

>  <Shape-it::Tversky_Ref>
0.981759

>  <Shape-it::Tversky_Db>
0.739086

$$$$
379ad27e-0a8f-467c-adc9-060eab9b7ccf
 OpenBabel11192109393D

 17 18  0  0  0  0  0  0  0  0999 V2000
    8.9105    2.1988   22.3929 C   0  0  0  0  0  0  0  0  0  0  0  0
    8.2221    1.0077   22.8615 N   0  0  0  0  0  0  0  0  0  0  0  0
    8.3258   -0.1906   22.0037 C   0  0  2  0  0  0  0  0  0  0  0  0
    9.6915   -0.8704   22.1597 C   0  0  0  0  0  0  0  0  0  0  0  0
    9.7872   -2.0745   22.8832 C   0  0  0  0  0  0  0  0  0  0  0  0
   11.0175   -2.7117   23.0655 C   0  0  0  0  0  0  0  0  0  0  0  0
   12.1776   -2.1546   22.5322 C   0  0  0  0  0  0  0  0  0  0  0  0
   12.1019   -0.9629   21.8178 C   0  0  0  0  0  0  0  0  0  0  0  0
   13.5322   -0.2716   21.1567 Cl  0  0  0  0  0  0  0  0  0  0  0  0
   10.8750   -0.3234   21.6316 C   0  0  0  0  0  0  0  0  0  0  0  0
    7.7537   -0.0278   20.5909 C   0  0  0  0  0  0  0  0  0  0  0  0
    8.4399   -0.4905   19.4630 C   0  0  0  0  0  0  0  0  0  0  0  0
    8.0072   -0.3926   18.1819 N   0  0  0  0  0  0  0  0  0  0  0  0
    6.8085    0.1833   17.9931 C   0  0  0  0  0  0  0  0  0  0  0  0
    6.0148    0.6441   19.0262 C   0  0  0  0  0  0  0  0  0  0  0  0
    6.4700    0.5202   20.3480 C   0  0  0  0  0  0  0  0  0  0  0  0
    5.5636    1.0076   21.4475 C   0  0  0  0  0  0  0  0  0  0  0  0
  1  2  1  0  0  0  0
  3  2  1  6  0  0  0
  3  4  1  0  0  0  0
  3 11  1  0  0  0  0
  4  5  2  0  0  0  0
  5  6  1  0  0  0  0
  6  7  2  0  0  0  0
  7  8  1  0  0  0  0
  8  9  1  0  0  0  0
  8 10  2  0  0  0  0
 10  4  1  0  0  0  0
 11 12  2  0  0  0  0
 12 13  1  0  0  0  0
 13 14  2  0  0  0  0
 14 15  1  0  0  0  0
 15 16  2  0  0  0  0
 16 17  1  0  0  0  0
 16 11  1  0  0  0  0
M  END
>  <std_smi>
CNC(c1cccc(Cl)c1)c1cnccc1C

>  <enum_smi>
CNC(c1cccc(Cl)c1)c1cnccc1C

>  <enum_code>
B

>  <Energy>
45.442015897555734

>  <Energy_Delta>
6.7038670146406361

>  <Shape-it::Tanimoto>
0.737329

>  <Shape-it::Tversky_Ref>
0.982499

>  <Shape-it::Tversky_Db>
0.747142

$$$$
e8ee0b8d-0bac-4cbe-9d16-19344b4c23c3
 OpenBabel11192109393D

 17 18  0  0  0  0  0  0  0  0999 V2000
    6.2339   -0.9394   23.1338 C   0  0  0  0  0  0  0  0  0  0  0  0
    7.5338   -0.2756   23.1063 N   0  0  0  0  0  0  0  0  0  0  0  0
    8.2899   -0.5798   21.8718 C   0  0  2  0  0  0  0  0  0  0  0  0
    9.7696   -0.2497   22.0832 C   0  0  0  0  0  0  0  0  0  0  0  0
   10.1941    1.0427   22.4405 C   0  0  0  0  0  0  0  0  0  0  0  0
   11.5486    1.3277   22.6292 C   0  0  0  0  0  0  0  0  0  0  0  0
   12.5019    0.3244   22.4682 C   0  0  0  0  0  0  0  0  0  0  0  0
   12.0952   -0.9613   22.1225 C   0  0  0  0  0  0  0  0  0  0  0  0
   13.2686   -2.2053   21.9274 Cl  0  0  0  0  0  0  0  0  0  0  0  0
   10.7433   -1.2523   21.9333 C   0  0  0  0  0  0  0  0  0  0  0  0
    7.7283    0.0954   20.6244 C   0  0  0  0  0  0  0  0  0  0  0  0
    7.1846    1.3823   20.7041 C   0  0  0  0  0  0  0  0  0  0  0  0
    6.6841    2.0843   19.6602 N   0  0  0  0  0  0  0  0  0  0  0  0
    6.7273    1.4817   18.4589 C   0  0  0  0  0  0  0  0  0  0  0  0
    7.2441    0.2134   18.2549 C   0  0  0  0  0  0  0  0  0  0  0  0
    7.7559   -0.5020   19.3468 C   0  0  0  0  0  0  0  0  0  0  0  0
    8.3213   -1.8736   19.1065 C   0  0  0  0  0  0  0  0  0  0  0  0
  1  2  1  0  0  0  0
  3  2  1  1  0  0  0
  3  4  1  0  0  0  0
  3 11  1  0  0  0  0
  4  5  2  0  0  0  0
  5  6  1  0  0  0  0
  6  7  2  0  0  0  0
  7  8  1  0  0  0  0
  8  9  1  0  0  0  0
  8 10  2  0  0  0  0
 10  4  1  0  0  0  0
 11 12  2  0  0  0  0
 12 13  1  0  0  0  0
 13 14  2  0  0  0  0
 14 15  1  0  0  0  0
 15 16  2  0  0  0  0
 16 17  1  0  0  0  0
 16 11  1  0  0  0  0
M  END
>  <std_smi>
CNC(c1cccc(Cl)c1)c1cnccc1C

>  <enum_smi>
CN[C@H](c1cccc(Cl)c1)c1cnccc1C

>  <enum_code>
C

>  <parent_uuid>
379ad27e-0a8f-467c-adc9-060eab9b7ccf

>  <Energy>
38.738148885573452

>  <Energy_Delta>
0

>  <Shape-it::Tanimoto>
0.709058

>  <Shape-it::Tversky_Ref>
0.964388

>  <Shape-it::Tversky_Db>
0.728123

$$$$
e8ee0b8d-0bac-4cbe-9d16-19344b4c23c3
 OpenBabel11192109393D

 17 18  0  0  0  0  0  0  0  0999 V2000
    6.7855   -0.8460   23.4276 C   0  0  0  0  0  0  0  0  0  0  0  0
    8.0265   -1.3499   22.8475 N   0  0  0  0  0  0  0  0  0  0  0  0
    8.8826   -0.2637   22.3254 C   0  0  2  0  0  0  0  0  0  0  0  0
    8.3567    0.3687   21.0353 C   0  0  0  0  0  0  0  0  0  0  0  0
    8.6493    1.7153   20.7527 C   0  0  0  0  0  0  0  0  0  0  0  0
    8.2025    2.3149   19.5727 C   0  0  0  0  0  0  0  0  0  0  0  0
    7.4600    1.5768   18.6529 C   0  0  0  0  0  0  0  0  0  0  0  0
    7.1698    0.2404   18.9152 C   0  0  0  0  0  0  0  0  0  0  0  0
    6.2548   -0.6723   17.7787 Cl  0  0  0  0  0  0  0  0  0  0  0  0
    7.6147   -0.3636   20.0910 C   0  0  0  0  0  0  0  0  0  0  0  0
   10.3163   -0.7616   22.1642 C   0  0  0  0  0  0  0  0  0  0  0  0
   10.5885   -1.8202   21.2906 C   0  0  0  0  0  0  0  0  0  0  0  0
   11.8152   -2.3463   21.0668 N   0  0  0  0  0  0  0  0  0  0  0  0
   12.8373   -1.7945   21.7447 C   0  0  0  0  0  0  0  0  0  0  0  0
   12.6889   -0.7480   22.6394 C   0  0  0  0  0  0  0  0  0  0  0  0
   11.4117   -0.2155   22.8646 C   0  0  0  0  0  0  0  0  0  0  0  0
   11.2638    0.9128   23.8462 C   0  0  0  0  0  0  0  0  0  0  0  0
  1  2  1  0  0  0  0
  3  2  1  6  0  0  0
  3  4  1  0  0  0  0
  3 11  1  0  0  0  0
  4  5  2  0  0  0  0
  5  6  1  0  0  0  0
  6  7  2  0  0  0  0
  7  8  1  0  0  0  0
  8  9  1  0  0  0  0
  8 10  2  0  0  0  0
 10  4  1  0  0  0  0
 11 12  2  0  0  0  0
 12 13  1  0  0  0  0
 13 14  2  0  0  0  0
 14 15  1  0  0  0  0
 15 16  2  0  0  0  0
 16 17  1  0  0  0  0
 16 11  1  0  0  0  0
M  END
>  <std_smi>
CNC(c1cccc(Cl)c1)c1cnccc1C

>  <enum_smi>
CN[C@H](c1cccc(Cl)c1)c1cnccc1C

>  <enum_code>
C

>  <parent_uuid>
379ad27e-0a8f-467c-adc9-060eab9b7ccf

>  <Energy>
39.235140292397098

>  <Energy_Delta>
0.49699140682364629

>  <Shape-it::Tanimoto>
0.716115

>  <Shape-it::Tversky_Ref>
0.971936

>  <Shape-it::Tversky_Db>
0.731235

$$$$
e8ee0b8d-0bac-4cbe-9d16-19344b4c23c3
 OpenBabel11192109393D

 17 18  0  0  0  0  0  0  0  0999 V2000
    8.0940   -1.7864   24.0183 C   0  0  0  0  0  0  0  0  0  0  0  0
    7.6485   -0.7214   23.1300 N   0  0  0  0  0  0  0  0  0  0  0  0
    8.2804   -0.7799   21.7960 C   0  0  2  0  0  0  0  0  0  0  0  0
    9.7073   -0.2328   21.8551 C   0  0  0  0  0  0  0  0  0  0  0  0
    9.9631    1.1463   21.9615 C   0  0  0  0  0  0  0  0  0  0  0  0
   11.2728    1.6274   22.0277 C   0  0  0  0  0  0  0  0  0  0  0  0
   12.3458    0.7383   21.9950 C   0  0  0  0  0  0  0  0  0  0  0  0
   12.1051   -0.6296   21.8975 C   0  0  0  0  0  0  0  0  0  0  0  0
   13.4278   -1.7296   21.8602 Cl  0  0  0  0  0  0  0  0  0  0  0  0
   10.7999   -1.1172   21.8303 C   0  0  0  0  0  0  0  0  0  0  0  0
    7.4378   -0.1069   20.7077 C   0  0  0  0  0  0  0  0  0  0  0  0
    6.3874    0.7568   21.0359 C   0  0  0  0  0  0  0  0  0  0  0  0
    5.6168    1.4260   20.1446 N   0  0  0  0  0  0  0  0  0  0  0  0
    5.8896    1.2233   18.8440 C   0  0  0  0  0  0  0  0  0  0  0  0
    6.8938    0.3843   18.3946 C   0  0  0  0  0  0  0  0  0  0  0  0
    7.6806   -0.3047   19.3291 C   0  0  0  0  0  0  0  0  0  0  0  0
    8.7802   -1.1927   18.8133 C   0  0  0  0  0  0  0  0  0  0  0  0
  1  2  1  0  0  0  0
  3  2  1  1  0  0  0
  3  4  1  0  0  0  0
  3 11  1  0  0  0  0
  4  5  2  0  0  0  0
  5  6  1  0  0  0  0
  6  7  2  0  0  0  0
  7  8  1  0  0  0  0
  8  9  1  0  0  0  0
  8 10  2  0  0  0  0
 10  4  1  0  0  0  0
 11 12  2  0  0  0  0
 12 13  1  0  0  0  0
 13 14  2  0  0  0  0
 14 15  1  0  0  0  0
 15 16  2  0  0  0  0
 16 17  1  0  0  0  0
 16 11  1  0  0  0  0
M  END
>  <std_smi>
CNC(c1cccc(Cl)c1)c1cnccc1C

>  <enum_smi>
CN[C@H](c1cccc(Cl)c1)c1cnccc1C

>  <enum_code>
C

>  <parent_uuid>
379ad27e-0a8f-467c-adc9-060eab9b7ccf

>  <Energy>
40.240509816863018

>  <Energy_Delta>
1.5023609312895658

>  <Shape-it::Tanimoto>
0.721219

>  <Shape-it::Tversky_Ref>
0.976964

>  <Shape-it::Tversky_Db>
0.733697

$$$$
