@<TRIPOS>MOLECULE
*****
 25 25 0 0 0
SMALL
GASTEIGER

@<TRIPOS>ATOM
      1 CL         13.8670   -1.8940   21.3090 Cl      1  UNL1       -0.0835
      2 C           7.7860   -1.2790   23.5320 C.3     1  UNL1       -0.0425
      3 C           8.9530   -2.0530   22.9230 C.3     1  UNL1        0.0456
      4 N           8.6000   -2.5190   21.5690 N.am    1  UNL1       -0.3090
      5 C           8.2480   -1.7370   20.5390 C.2     1  UNL1        0.2104
      6 O           8.1800   -0.5050   20.6070 O.2     1  UNL1       -0.2761
      7 C           7.9090   -2.4060   19.2050 C.3     1  UNL1        0.0122
      8 C          10.2820   -1.3150   22.9450 C.ar    1  UNL1       -0.0261
      9 C          10.4990   -0.1710   23.7040 C.ar    1  UNL1       -0.0567
     10 C          11.7390    0.4460   23.7060 C.ar    1  UNL1       -0.0601
     11 C          12.7860   -0.0730   22.9800 C.ar    1  UNL1       -0.0434
     12 C          12.5700   -1.2120   22.2460 C.ar    1  UNL1        0.0413
     13 C          11.3440   -1.8310   22.2260 C.ar    1  UNL1       -0.0384
     14 H           6.8965   -1.8709   23.4740 H       1  UNL1        0.0251
     15 H           7.6429   -0.3663   22.9922 H       1  UNL1        0.0251
     16 H           8.0009   -1.0575   24.5565 H       1  UNL1        0.0251
     17 H           9.1152   -2.9006   23.5556 H       1  UNL1        0.0545
     18 H           8.6251   -3.4898   21.4075 H       1  UNL1        0.1493
     19 H           8.0125   -3.4666   19.3014 H       1  UNL1        0.0322
     20 H           8.5759   -2.0500   18.4478 H       1  UNL1        0.0322
     21 H           6.9016   -2.1692   18.9331 H       1  UNL1        0.0322
     22 H           9.7306    0.2215   24.2702 H       1  UNL1        0.0621
     23 H          11.8793    1.3059   24.2591 H       1  UNL1        0.0618
     24 H          13.7116    0.3834   22.9873 H       1  UNL1        0.0632
     25 H          11.2144   -2.6898   21.6687 H       1  UNL1        0.0635
@<TRIPOS>BOND
     1     3     2    1
     2     4     3    1
     3     5     4   am
     4     6     5    2
     5     7     5    1
     6     8     3    1
     7     9     8   ar
     8    10     9   ar
     9    11    10   ar
    10    12     1    1
    11    12    11   ar
    12    13     8   ar
    13    13    12   ar
    14     2    14    1
    15     2    15    1
    16     2    16    1
    17     3    17    1
    18     4    18    1
    19     7    19    1
    20     7    20    1
    21     7    21    1
    22     9    22    1
    23    10    23    1
    24    11    24    1
    25    13    25    1
