8826573
     RDKit          3D

 19 20  0  0  0  0  0  0  0  0999 V2000
    7.7297    0.2861   25.2966 C   0  0  0  0  0  0  0  0  0  0  0  0
    8.4234    0.0200   24.0846 O   0  0  0  0  0  0  0  0  0  0  0  0
    7.7270    0.0157   22.8856 C   0  0  0  0  0  0  0  0  0  0  0  0
    6.4097    0.2687   22.8201 C   0  0  0  0  0  0  0  0  0  0  0  0
    5.7965    0.2996   21.4909 C   0  0  0  0  0  0  0  0  0  0  0  0
    4.5912    0.4298   21.3390 O   0  0  0  0  0  0  0  0  0  0  0  0
    6.7055    0.1856   20.3106 C   0  0  0  0  0  0  0  0  0  0  0  0
    6.1734    0.3643   18.9111 C   0  0  0  0  0  0  0  0  0  0  0  0
    5.0136    0.6092   18.6497 O   0  0  0  0  0  0  0  0  0  0  0  0
    7.1337    0.2415   17.9886 O   0  0  0  0  0  0  0  0  0  0  0  0
    7.9765   -0.0598   20.4410 N   0  0  0  0  0  0  0  0  0  0  0  0
    8.4802   -0.2239   21.7173 N   0  0  0  0  0  0  0  0  0  0  0  0
    9.8498   -0.6580   21.7218 C   0  0  0  0  0  0  0  0  0  0  0  0
   10.6604   -0.4640   20.5829 C   0  0  0  0  0  0  0  0  0  0  0  0
   11.9916   -0.8899   20.5538 C   0  0  0  0  0  0  0  0  0  0  0  0
   12.5273   -1.5277   21.6626 C   0  0  0  0  0  0  0  0  0  0  0  0
   13.8016   -1.9394   21.6382 F   0  0  0  0  0  0  0  0  0  0  0  0
   11.7566   -1.7522   22.7943 C   0  0  0  0  0  0  0  0  0  0  0  0
   10.4249   -1.3237   22.8205 C   0  0  0  0  0  0  0  0  0  0  0  0
  1  2  1  0
  2  3  1  0
  3  4  2  0
  4  5  1  0
  5  6  2  0
  5  7  1  0
  7  8  1  0
  7 11  2  0
  8  9  2  0
  8 10  1  0
 11 12  1  0
 12 13  1  0
 12  3  1  0
 13 14  2  0
 14 15  1  0
 15 16  2  0
 16 17  1  0
 16 18  1  0
 18 19  2  0
 19 13  1  0
M  END
>  <enum_smi>  (1) 
COc1cc(=O)c(C(=O)O)nn1-c1ccc(F)cc1

>  <std_smi>  (1) 
COc1cc(=O)c(C(=O)O)nn1-c1ccc(F)cc1

>  <molecule_id>  (1) 
3258623

>  <enum_code>  (1) 
B

>  <codes>  (1) 
MolPort-019-714-978

>  <libraries>  (1) 
molport

>  <PH4_SCORE>  (1) 
-65.6742

>  <o3da_score>  (1) 
75.022673283364213

>  <o3da_score_rel>  (1) 
0.35535222896412599

>  <o3da_align>  (1) 
0.6295842582689023

$$$$
8826573
     RDKit          3D

 19 20  0  0  0  0  0  0  0  0999 V2000
    6.9764    1.2304   24.7602 C   0  0  0  0  0  0  0  0  0  0  0  0
    7.9391    0.6056   23.9214 O   0  0  0  0  0  0  0  0  0  0  0  0
    7.6435    0.3918   22.5836 C   0  0  0  0  0  0  0  0  0  0  0  0
    6.4771    0.7716   22.0369 C   0  0  0  0  0  0  0  0  0  0  0  0
    6.3047    0.5507   20.5999 C   0  0  0  0  0  0  0  0  0  0  0  0
    5.2461    0.7784   20.0341 O   0  0  0  0  0  0  0  0  0  0  0  0
    7.4861    0.0505   19.8338 C   0  0  0  0  0  0  0  0  0  0  0  0
    7.4383   -0.0544   18.3303 C   0  0  0  0  0  0  0  0  0  0  0  0
    6.4722    0.2415   17.6575 O   0  0  0  0  0  0  0  0  0  0  0  0
    8.5938   -0.4934   17.8199 O   0  0  0  0  0  0  0  0  0  0  0  0
    8.5913   -0.3009   20.4234 N   0  0  0  0  0  0  0  0  0  0  0  0
    8.6519   -0.2084   21.8010 N   0  0  0  0  0  0  0  0  0  0  0  0
    9.8516   -0.7835   22.3435 C   0  0  0  0  0  0  0  0  0  0  0  0
   11.0054   -0.9094   21.5405 C   0  0  0  0  0  0  0  0  0  0  0  0
   12.1814   -1.4788   22.0373 C   0  0  0  0  0  0  0  0  0  0  0  0
   12.2152   -1.9418   23.3441 C   0  0  0  0  0  0  0  0  0  0  0  0
   13.3392   -2.4900   23.8235 F   0  0  0  0  0  0  0  0  0  0  0  0
   11.0956   -1.8514   24.1589 C   0  0  0  0  0  0  0  0  0  0  0  0
    9.9205   -1.2800   23.6588 C   0  0  0  0  0  0  0  0  0  0  0  0
  1  2  1  0
  2  3  1  0
  3  4  2  0
  4  5  1  0
  5  6  2  0
  5  7  1  0
  7  8  1  0
  7 11  2  0
  8  9  2  0
  8 10  1  0
 11 12  1  0
 12 13  1  0
 12  3  1  0
 13 14  2  0
 14 15  1  0
 15 16  2  0
 16 17  1  0
 16 18  1  0
 18 19  2  0
 19 13  1  0
M  END
>  <enum_smi>  (2) 
COc1cc(=O)c(C(=O)O)nn1-c1ccc(F)cc1

>  <std_smi>  (2) 
COc1cc(=O)c(C(=O)O)nn1-c1ccc(F)cc1

>  <molecule_id>  (2) 
3258623

>  <enum_code>  (2) 
B

>  <codes>  (2) 
MolPort-019-714-978

>  <libraries>  (2) 
molport

>  <PH4_SCORE>  (2) 
-65.2764

>  <o3da_score>  (2) 
70.333020551946134

>  <o3da_score_rel>  (2) 
0.33313923016997815

>  <o3da_align>  (2) 
0.53931964937044952

$$$$
8826573
     RDKit          3D

 19 20  0  0  0  0  0  0  0  0999 V2000
   10.8828    0.7562   17.6889 C   0  0  0  0  0  0  0  0  0  0  0  0
    9.6354    0.6101   18.3550 O   0  0  0  0  0  0  0  0  0  0  0  0
    9.5658   -0.1423   19.5177 C   0  0  0  0  0  0  0  0  0  0  0  0
   10.6462   -0.7282   20.0590 C   0  0  0  0  0  0  0  0  0  0  0  0
   10.4608   -1.4433   21.3230 C   0  0  0  0  0  0  0  0  0  0  0  0
   11.3634   -2.0833   21.8411 O   0  0  0  0  0  0  0  0  0  0  0  0
    9.1211   -1.3478   21.9777 C   0  0  0  0  0  0  0  0  0  0  0  0
    8.8953   -1.9236   23.3528 C   0  0  0  0  0  0  0  0  0  0  0  0
    9.7583   -2.4616   24.0159 O   0  0  0  0  0  0  0  0  0  0  0  0
    7.6353   -1.7549   23.7680 O   0  0  0  0  0  0  0  0  0  0  0  0
    8.1119   -0.7641   21.4002 N   0  0  0  0  0  0  0  0  0  0  0  0
    8.3032   -0.2291   20.1404 N   0  0  0  0  0  0  0  0  0  0  0  0
    7.0809    0.2309   19.5415 C   0  0  0  0  0  0  0  0  0  0  0  0
    5.9759    0.5693   20.3518 C   0  0  0  0  0  0  0  0  0  0  0  0
    4.7697    1.0049   19.7955 C   0  0  0  0  0  0  0  0  0  0  0  0
    4.6488    1.0969   18.4170 C   0  0  0  0  0  0  0  0  0  0  0  0
    3.4943    1.5118   17.8799 F   0  0  0  0  0  0  0  0  0  0  0  0
    5.7073    0.7564   17.5869 C   0  0  0  0  0  0  0  0  0  0  0  0
    6.9135    0.3218   18.1469 C   0  0  0  0  0  0  0  0  0  0  0  0
  1  2  1  0
  2  3  1  0
  3  4  2  0
  4  5  1  0
  5  6  2  0
  5  7  1  0
  7  8  1  0
  7 11  2  0
  8  9  2  0
  8 10  1  0
 11 12  1  0
 12 13  1  0
 12  3  1  0
 13 14  2  0
 14 15  1  0
 15 16  2  0
 16 17  1  0
 16 18  1  0
 18 19  2  0
 19 13  1  0
M  END
>  <enum_smi>  (3) 
COc1cc(=O)c(C(=O)O)nn1-c1ccc(F)cc1

>  <std_smi>  (3) 
COc1cc(=O)c(C(=O)O)nn1-c1ccc(F)cc1

>  <molecule_id>  (3) 
3258623

>  <enum_code>  (3) 
B

>  <codes>  (3) 
MolPort-019-714-978

>  <libraries>  (3) 
molport

>  <PH4_SCORE>  (3) 
-64.7149

>  <o3da_score>  (3) 
72.873305625788376

>  <o3da_score_rel>  (3) 
0.34517153885330931

>  <o3da_align>  (3) 
0.48291197804709773

$$$$
8826573
     RDKit          3D

 19 20  0  0  0  0  0  0  0  0999 V2000
    7.7365    0.3109   25.2948 C   0  0  0  0  0  0  0  0  0  0  0  0
    8.4282    0.0368   24.0834 O   0  0  0  0  0  0  0  0  0  0  0  0
    7.7303    0.0270   22.8854 C   0  0  0  0  0  0  0  0  0  0  0  0
    6.4131    0.2806   22.8201 C   0  0  0  0  0  0  0  0  0  0  0  0
    5.7982    0.3053   21.4916 C   0  0  0  0  0  0  0  0  0  0  0  0
    4.5928    0.4356   21.3406 O   0  0  0  0  0  0  0  0  0  0  0  0
    6.7056    0.1844   20.3107 C   0  0  0  0  0  0  0  0  0  0  0  0
    6.1719    0.3564   18.9111 C   0  0  0  0  0  0  0  0  0  0  0  0
    5.0090    0.5858   18.6491 O   0  0  0  0  0  0  0  0  0  0  0  0
    7.1342    0.2469   17.9890 O   0  0  0  0  0  0  0  0  0  0  0  0
    7.9766   -0.0612   20.4407 N   0  0  0  0  0  0  0  0  0  0  0  0
    8.4819   -0.2192   21.7173 N   0  0  0  0  0  0  0  0  0  0  0  0
    9.8511   -0.6544   21.7223 C   0  0  0  0  0  0  0  0  0  0  0  0
   10.6646   -0.4536   20.5866 C   0  0  0  0  0  0  0  0  0  0  0  0
   11.9954   -0.8804   20.5580 C   0  0  0  0  0  0  0  0  0  0  0  0
   12.5282   -1.5258   21.6639 C   0  0  0  0  0  0  0  0  0  0  0  0
   13.8022   -1.9382   21.6399 F   0  0  0  0  0  0  0  0  0  0  0  0
   11.7544   -1.7569   22.7924 C   0  0  0  0  0  0  0  0  0  0  0  0
   10.4231   -1.3276   22.8181 C   0  0  0  0  0  0  0  0  0  0  0  0
  1  2  1  0
  2  3  1  0
  3  4  2  0
  4  5  1  0
  5  6  2  0
  5  7  1  0
  7  8  1  0
  7 11  2  0
  8  9  2  0
  8 10  1  0
 11 12  1  0
 12 13  1  0
 12  3  1  0
 13 14  2  0
 14 15  1  0
 15 16  2  0
 16 17  1  0
 16 18  1  0
 18 19  2  0
 19 13  1  0
M  END
>  <enum_smi>  (4) 
COc1cc(=O)c(C(=O)O)nn1-c1ccc(F)cc1

>  <std_smi>  (4) 
COc1cc(=O)c(C(=O)O)nn1-c1ccc(F)cc1

>  <molecule_id>  (4) 
3258623

>  <enum_code>  (4) 
B

>  <codes>  (4) 
MolPort-019-714-978

>  <libraries>  (4) 
molport

>  <PH4_SCORE>  (4) 
-63.8579

>  <o3da_score>  (4) 
75.026882564560893

>  <o3da_score_rel>  (4) 
0.35537216663616716

>  <o3da_align>  (4) 
0.62986228947744072

$$$$
8826573
     RDKit          3D

 19 20  0  0  0  0  0  0  0  0999 V2000
   11.7224   -1.1995   18.5208 C   0  0  0  0  0  0  0  0  0  0  0  0
   11.0934   -0.9282   19.7666 O   0  0  0  0  0  0  0  0  0  0  0  0
    9.7606   -0.5463   19.7902 C   0  0  0  0  0  0  0  0  0  0  0  0
    9.0369   -0.3974   18.6687 C   0  0  0  0  0  0  0  0  0  0  0  0
    7.6221   -0.0535   18.8224 C   0  0  0  0  0  0  0  0  0  0  0  0
    6.9093    0.1921   17.8609 O   0  0  0  0  0  0  0  0  0  0  0  0
    7.0656   -0.0318   20.2089 C   0  0  0  0  0  0  0  0  0  0  0  0
    5.5881    0.1594   20.4407 C   0  0  0  0  0  0  0  0  0  0  0  0
    4.7690    0.2767   19.5525 O   0  0  0  0  0  0  0  0  0  0  0  0
    5.2797    0.1646   21.7420 O   0  0  0  0  0  0  0  0  0  0  0  0
    7.8211   -0.1842   21.2570 N   0  0  0  0  0  0  0  0  0  0  0  0
    9.1775   -0.3629   21.0614 N   0  0  0  0  0  0  0  0  0  0  0  0
    9.9223   -0.3463   22.2899 C   0  0  0  0  0  0  0  0  0  0  0  0
    9.2747   -0.6041   23.5170 C   0  0  0  0  0  0  0  0  0  0  0  0
    9.9712   -0.5795   24.7288 C   0  0  0  0  0  0  0  0  0  0  0  0
   11.3263   -0.2843   24.7300 C   0  0  0  0  0  0  0  0  0  0  0  0
   11.9971   -0.2576   25.8890 F   0  0  0  0  0  0  0  0  0  0  0  0
   11.9941   -0.0082   23.5455 C   0  0  0  0  0  0  0  0  0  0  0  0
   11.2942   -0.0347   22.3343 C   0  0  0  0  0  0  0  0  0  0  0  0
  1  2  1  0
  2  3  1  0
  3  4  2  0
  4  5  1  0
  5  6  2  0
  5  7  1  0
  7  8  1  0
  7 11  2  0
  8  9  2  0
  8 10  1  0
 11 12  1  0
 12 13  1  0
 12  3  1  0
 13 14  2  0
 14 15  1  0
 15 16  2  0
 16 17  1  0
 16 18  1  0
 18 19  2  0
 19 13  1  0
M  END
>  <enum_smi>  (5) 
COc1cc(=O)c(C(=O)O)nn1-c1ccc(F)cc1

>  <std_smi>  (5) 
COc1cc(=O)c(C(=O)O)nn1-c1ccc(F)cc1

>  <molecule_id>  (5) 
3258623

>  <enum_code>  (5) 
B

>  <codes>  (5) 
MolPort-019-714-978

>  <libraries>  (5) 
molport

>  <PH4_SCORE>  (5) 
-63.7036

>  <o3da_score>  (5) 
67.325291092296325

>  <o3da_score_rel>  (5) 
0.31889282543882835

>  <o3da_align>  (5) 
0.43645859227008404

$$$$
8826576
     RDKit          3D

 18 20  0  0  0  0  0  0  0  0999 V2000
   15.3090   -2.6129   21.7939 O   0  0  0  0  0  0  0  0  0  0  0  0
   14.2897   -1.9783   22.0049 C   0  0  0  0  0  0  0  0  0  0  0  0
   14.1998   -0.7414   22.6590 N   0  0  0  0  0  0  0  0  0  0  0  0
   12.8902   -0.3086   22.7242 N   0  0  0  0  0  0  0  0  0  0  0  0
   12.2443   -1.2669   22.1257 C   0  0  0  0  0  0  0  0  0  0  0  0
   10.7742   -1.4045   21.8635 C   0  0  0  0  0  0  0  0  0  0  0  0
   10.0963   -0.3202   22.3601 O   0  0  0  0  0  0  0  0  0  0  0  0
    8.8587   -0.0912   21.7538 C   0  0  0  0  0  0  0  0  0  0  0  0
    8.7182   -0.3236   20.3861 C   0  0  0  0  0  0  0  0  0  0  0  0
    7.4933   -0.0553   19.7744 C   0  0  0  0  0  0  0  0  0  0  0  0
    6.4360    0.4524   20.5328 C   0  0  0  0  0  0  0  0  0  0  0  0
    4.9267    0.7834   19.7748 Cl  0  0  0  0  0  0  0  0  0  0  0  0
    6.5926    0.7006   21.8983 C   0  0  0  0  0  0  0  0  0  0  0  0
    7.8154    0.4340   22.5148 C   0  0  0  0  0  0  0  0  0  0  0  0
   10.2609   -2.4320   21.2449 N   0  0  0  0  0  0  0  0  0  0  0  0
   11.1469   -3.4100   20.8321 C   0  0  0  0  0  0  0  0  0  0  0  0
   12.4757   -3.3685   21.0246 C   0  0  0  0  0  0  0  0  0  0  0  0
   13.0010   -2.2928   21.6707 N   0  0  0  0  0  0  0  0  0  0  0  0
  1  2  2  0
  2  3  1  0
  3  4  1  0
  4  5  2  0
  5  6  1  0
  6  7  1  0
  6 15  2  0
  7  8  1  0
  8  9  2  0
  9 10  1  0
 10 11  2  0
 11 12  1  0
 11 13  1  0
 13 14  2  0
 14  8  1  0
 15 16  1  0
 16 17  2  0
 17 18  1  0
 18  2  1  0
 18  5  1  0
M  END
>  <enum_smi>  (6) 
O=c1[nH]nc2c(Oc3ccc(Cl)cc3)nccn12

>  <std_smi>  (6) 
O=c1[nH]nc2c(Oc3ccc(Cl)cc3)nccn12

>  <molecule_id>  (6) 
3259030

>  <enum_code>  (6) 
B

>  <codes>  (6) 
MolPort-019-715-458

>  <libraries>  (6) 
molport

>  <PH4_SCORE>  (6) 
-70.9658

>  <o3da_score>  (6) 
62.22526303668063

>  <o3da_score_rel>  (6) 
0.2947360437883339

>  <o3da_align>  (6) 
0.55730459502048257

$$$$
8826576
     RDKit          3D

 18 20  0  0  0  0  0  0  0  0999 V2000
    5.2833    1.4680   16.9857 O   0  0  0  0  0  0  0  0  0  0  0  0
    5.7072    1.0249   18.0393 C   0  0  0  0  0  0  0  0  0  0  0  0
    5.1988    1.2909   19.3188 N   0  0  0  0  0  0  0  0  0  0  0  0
    5.9201    0.6228   20.2882 N   0  0  0  0  0  0  0  0  0  0  0  0
    6.8174   -0.0096   19.5890 C   0  0  0  0  0  0  0  0  0  0  0  0
    7.9153   -0.9207   20.0510 C   0  0  0  0  0  0  0  0  0  0  0  0
    7.8912   -1.0445   21.4170 O   0  0  0  0  0  0  0  0  0  0  0  0
    9.0905   -1.4961   21.9729 C   0  0  0  0  0  0  0  0  0  0  0  0
    9.0505   -2.3434   23.0795 C   0  0  0  0  0  0  0  0  0  0  0  0
   10.2494   -2.7605   23.6586 C   0  0  0  0  0  0  0  0  0  0  0  0
   11.4648   -2.3151   23.1341 C   0  0  0  0  0  0  0  0  0  0  0  0
   12.9417   -2.8307   23.8516 Cl  0  0  0  0  0  0  0  0  0  0  0  0
   11.4941   -1.4505   22.0376 C   0  0  0  0  0  0  0  0  0  0  0  0
   10.2982   -1.0303   21.4547 C   0  0  0  0  0  0  0  0  0  0  0  0
    8.7513   -1.4920   19.2283 N   0  0  0  0  0  0  0  0  0  0  0  0
    8.5799   -1.2169   17.8842 C   0  0  0  0  0  0  0  0  0  0  0  0
    7.6258   -0.4147   17.3834 C   0  0  0  0  0  0  0  0  0  0  0  0
    6.7592    0.1760   18.2497 N   0  0  0  0  0  0  0  0  0  0  0  0
  1  2  2  0
  2  3  1  0
  3  4  1  0
  4  5  2  0
  5  6  1  0
  6  7  1  0
  6 15  2  0
  7  8  1  0
  8  9  2  0
  9 10  1  0
 10 11  2  0
 11 12  1  0
 11 13  1  0
 13 14  2  0
 14  8  1  0
 15 16  1  0
 16 17  2  0
 17 18  1  0
 18  2  1  0
 18  5  1  0
M  END
>  <enum_smi>  (7) 
O=c1[nH]nc2c(Oc3ccc(Cl)cc3)nccn12

>  <std_smi>  (7) 
O=c1[nH]nc2c(Oc3ccc(Cl)cc3)nccn12

>  <molecule_id>  (7) 
3259030

>  <enum_code>  (7) 
B

>  <codes>  (7) 
MolPort-019-715-458

>  <libraries>  (7) 
molport

>  <PH4_SCORE>  (7) 
-70.8792

>  <o3da_score>  (7) 
63.552862138905283

>  <o3da_score_rel>  (7) 
0.30102434677061263

>  <o3da_align>  (7) 
0.4443731148061244

$$$$
8826576
     RDKit          3D

 18 20  0  0  0  0  0  0  0  0999 V2000
   12.9608   -1.1651   23.8377 O   0  0  0  0  0  0  0  0  0  0  0  0
   11.9263   -0.6506   23.4486 C   0  0  0  0  0  0  0  0  0  0  0  0
   11.4120    0.5906   23.8496 N   0  0  0  0  0  0  0  0  0  0  0  0
   10.2200    0.8643   23.2086 N   0  0  0  0  0  0  0  0  0  0  0  0
   10.0520   -0.1874   22.4605 C   0  0  0  0  0  0  0  0  0  0  0  0
    8.9372   -0.5114   21.5111 C   0  0  0  0  0  0  0  0  0  0  0  0
    8.0120    0.5013   21.4963 O   0  0  0  0  0  0  0  0  0  0  0  0
    7.2071    0.5256   20.3548 C   0  0  0  0  0  0  0  0  0  0  0  0
    7.7590    0.1662   19.1259 C   0  0  0  0  0  0  0  0  0  0  0  0
    6.9651    0.2306   17.9804 C   0  0  0  0  0  0  0  0  0  0  0  0
    5.6411    0.6647   18.0779 C   0  0  0  0  0  0  0  0  0  0  0  0
    4.6648    0.7438   16.6627 Cl  0  0  0  0  0  0  0  0  0  0  0  0
    5.1032    1.0414   19.3105 C   0  0  0  0  0  0  0  0  0  0  0  0
    5.8928    0.9790   20.4590 C   0  0  0  0  0  0  0  0  0  0  0  0
    8.8989   -1.6164   20.8185 N   0  0  0  0  0  0  0  0  0  0  0  0
    9.9509   -2.4952   20.9998 C   0  0  0  0  0  0  0  0  0  0  0  0
   10.9880   -2.2862   21.8273 C   0  0  0  0  0  0  0  0  0  0  0  0
   11.0185   -1.1310   22.5449 N   0  0  0  0  0  0  0  0  0  0  0  0
  1  2  2  0
  2  3  1  0
  3  4  1  0
  4  5  2  0
  5  6  1  0
  6  7  1  0
  6 15  2  0
  7  8  1  0
  8  9  2  0
  9 10  1  0
 10 11  2  0
 11 12  1  0
 11 13  1  0
 13 14  2  0
 14  8  1  0
 15 16  1  0
 16 17  2  0
 17 18  1  0
 18  2  1  0
 18  5  1  0
M  END
>  <enum_smi>  (8) 
O=c1[nH]nc2c(Oc3ccc(Cl)cc3)nccn12

>  <std_smi>  (8) 
O=c1[nH]nc2c(Oc3ccc(Cl)cc3)nccn12

>  <molecule_id>  (8) 
3259030

>  <enum_code>  (8) 
B

>  <codes>  (8) 
MolPort-019-715-458

>  <libraries>  (8) 
molport

>  <PH4_SCORE>  (8) 
-67.571

>  <o3da_score>  (8) 
78.823708904698165

>  <o3da_score_rel>  (8) 
0.37335620591268631

>  <o3da_align>  (8) 
0.55274976985402335

$$$$
8826576
     RDKit          3D

 18 20  0  0  0  0  0  0  0  0999 V2000
   12.7751   -1.0146   24.1947 O   0  0  0  0  0  0  0  0  0  0  0  0
   11.6719   -1.0874   23.6810 C   0  0  0  0  0  0  0  0  0  0  0  0
   10.6717   -2.0214   23.9863 N   0  0  0  0  0  0  0  0  0  0  0  0
    9.5467   -1.8145   23.2128 N   0  0  0  0  0  0  0  0  0  0  0  0
    9.8878   -0.7919   22.4835 C   0  0  0  0  0  0  0  0  0  0  0  0
    9.1016   -0.0700   21.4301 C   0  0  0  0  0  0  0  0  0  0  0  0
    7.8616   -0.6384   21.2851 O   0  0  0  0  0  0  0  0  0  0  0  0
    7.1165   -0.1248   20.2209 C   0  0  0  0  0  0  0  0  0  0  0  0
    7.7062   -0.0305   18.9610 C   0  0  0  0  0  0  0  0  0  0  0  0
    6.9746    0.5206   17.9086 C   0  0  0  0  0  0  0  0  0  0  0  0
    5.6751    0.9803   18.1335 C   0  0  0  0  0  0  0  0  0  0  0  0
    4.7757    1.6606   16.8333 Cl  0  0  0  0  0  0  0  0  0  0  0  0
    5.1001    0.8997   19.4038 C   0  0  0  0  0  0  0  0  0  0  0  0
    5.8274    0.3494   20.4595 C   0  0  0  0  0  0  0  0  0  0  0  0
    9.5760    0.9515   20.7716 N   0  0  0  0  0  0  0  0  0  0  0  0
   10.8608    1.3496   21.0915 C   0  0  0  0  0  0  0  0  0  0  0  0
   11.6348    0.7620   22.0190 C   0  0  0  0  0  0  0  0  0  0  0  0
   11.1309   -0.3022   22.7001 N   0  0  0  0  0  0  0  0  0  0  0  0
  1  2  2  0
  2  3  1  0
  3  4  1  0
  4  5  2  0
  5  6  1  0
  6  7  1  0
  6 15  2  0
  7  8  1  0
  8  9  2  0
  9 10  1  0
 10 11  2  0
 11 12  1  0
 11 13  1  0
 13 14  2  0
 14  8  1  0
 15 16  1  0
 16 17  2  0
 17 18  1  0
 18  2  1  0
 18  5  1  0
M  END
>  <enum_smi>  (9) 
O=c1[nH]nc2c(Oc3ccc(Cl)cc3)nccn12

>  <std_smi>  (9) 
O=c1[nH]nc2c(Oc3ccc(Cl)cc3)nccn12

>  <molecule_id>  (9) 
3259030

>  <enum_code>  (9) 
B

>  <codes>  (9) 
MolPort-019-715-458

>  <libraries>  (9) 
molport

>  <PH4_SCORE>  (9) 
-66.9297

>  <o3da_score>  (9) 
85.849815548151867

>  <o3da_score_rel>  (9) 
0.40663604715828694

>  <o3da_align>  (9) 
0.2978664704084798

$$$$
8826576
     RDKit          3D

 18 20  0  0  0  0  0  0  0  0999 V2000
    3.4503    0.7473   22.2304 O   0  0  0  0  0  0  0  0  0  0  0  0
    4.6008    0.7693   22.6333 C   0  0  0  0  0  0  0  0  0  0  0  0
    5.0201    1.0666   23.9378 N   0  0  0  0  0  0  0  0  0  0  0  0
    6.3951    0.9992   24.0446 N   0  0  0  0  0  0  0  0  0  0  0  0
    6.7577    0.6729   22.8379 C   0  0  0  0  0  0  0  0  0  0  0  0
    8.1335    0.4415   22.2879 C   0  0  0  0  0  0  0  0  0  0  0  0
    9.0768    0.6215   23.2673 O   0  0  0  0  0  0  0  0  0  0  0  0
   10.2728   -0.0652   23.0446 C   0  0  0  0  0  0  0  0  0  0  0  0
   11.4822    0.5610   23.3432 C   0  0  0  0  0  0  0  0  0  0  0  0
   12.6770   -0.1103   23.0817 C   0  0  0  0  0  0  0  0  0  0  0  0
   12.6456   -1.3864   22.5150 C   0  0  0  0  0  0  0  0  0  0  0  0
   14.1212   -2.2116   22.1926 Cl  0  0  0  0  0  0  0  0  0  0  0  0
   11.4295   -1.9975   22.2009 C   0  0  0  0  0  0  0  0  0  0  0  0
   10.2320   -1.3304   22.4603 C   0  0  0  0  0  0  0  0  0  0  0  0
    8.3503    0.1156   21.0433 N   0  0  0  0  0  0  0  0  0  0  0  0
    7.2355   -0.0101   20.2350 C   0  0  0  0  0  0  0  0  0  0  0  0
    5.9698    0.1785   20.6432 C   0  0  0  0  0  0  0  0  0  0  0  0
    5.7546    0.5179   21.9428 N   0  0  0  0  0  0  0  0  0  0  0  0
  1  2  2  0
  2  3  1  0
  3  4  1  0
  4  5  2  0
  5  6  1  0
  6  7  1  0
  6 15  2  0
  7  8  1  0
  8  9  2  0
  9 10  1  0
 10 11  2  0
 11 12  1  0
 11 13  1  0
 13 14  2  0
 14  8  1  0
 15 16  1  0
 16 17  2  0
 17 18  1  0
 18  2  1  0
 18  5  1  0
M  END
>  <enum_smi>  (10) 
O=c1[nH]nc2c(Oc3ccc(Cl)cc3)nccn12

>  <std_smi>  (10) 
O=c1[nH]nc2c(Oc3ccc(Cl)cc3)nccn12

>  <molecule_id>  (10) 
3259030

>  <enum_code>  (10) 
B

>  <codes>  (10) 
MolPort-019-715-458

>  <libraries>  (10) 
molport

>  <PH4_SCORE>  (10) 
-65.8215

>  <o3da_score>  (10) 
67.270064815682019

>  <o3da_score_rel>  (10) 
0.31863124077870625

>  <o3da_align>  (10) 
0.46697603971052326

$$$$
8826979
     RDKit          3D

 20 22  0  0  1  0  0  0  0  0999 V2000
    7.4662   -6.1289   23.1703 C   0  0  0  0  0  0  0  0  0  0  0  0
    7.4457   -5.7176   21.7838 N   0  0  0  0  0  0  0  0  0  0  0  0
    7.7627   -4.4348   21.4939 C   0  0  0  0  0  0  0  0  0  0  0  0
    7.7940   -3.9149   20.2884 N   0  0  0  0  0  0  0  0  0  0  0  0
    8.1554   -2.5936   20.3523 C   0  0  0  0  0  0  0  0  0  0  0  0
    8.4075   -2.1123   21.6149 C   0  0  0  0  0  0  0  0  0  0  0  0
    8.1696   -3.3411   22.7682 S   0  0  0  0  0  0  0  0  0  0  0  0
    8.7967   -0.7106   21.9338 C   0  0  1  0  0  0  0  0  0  0  0  0
   10.2559   -0.5873   22.3485 C   0  0  0  0  0  0  0  0  0  0  0  0
   10.6006    0.2737   23.4097 C   0  0  0  0  0  0  0  0  0  0  0  0
   11.9272    0.4013   23.8365 C   0  0  0  0  0  0  0  0  0  0  0  0
   12.9329   -0.3335   23.2140 C   0  0  0  0  0  0  0  0  0  0  0  0
   12.6040   -1.1919   22.1724 C   0  0  0  0  0  0  0  0  0  0  0  0
   13.5746   -1.8989   21.5770 F   0  0  0  0  0  0  0  0  0  0  0  0
   11.2845   -1.3216   21.7456 C   0  0  0  0  0  0  0  0  0  0  0  0
   11.0148   -2.1640   20.7401 F   0  0  0  0  0  0  0  0  0  0  0  0
    8.3794    0.1896   20.7602 C   0  0  0  0  0  0  0  0  0  0  0  0
    8.3988   -0.5405   19.4440 C   0  0  0  0  0  0  0  0  0  0  0  0
    8.5071    0.2809   18.3866 O   0  0  0  0  0  0  0  0  0  0  0  0
    8.2713   -1.8007   19.2025 N   0  0  0  0  0  0  0  0  0  0  0  0
  1  2  1  0
  2  3  1  0
  3  4  2  0
  4  5  1  0
  5  6  2  0
  6  7  1  0
  6  8  1  0
  7  3  1  0
  8  9  1  6
  8 17  1  0
  9 10  2  0
 10 11  1  0
 11 12  2  0
 12 13  1  0
 13 14  1  0
 13 15  2  0
 15 16  1  0
 15  9  1  0
 17 18  1  0
 18 19  1  0
 18 20  2  0
 20  5  1  0
M  END
>  <enum_smi>  (11) 
CNc1nc2c(s1)C(c1cccc(F)c1F)CC(O)=N2

>  <std_smi>  (11) 
CNc1nc2c(s1)C(c1cccc(F)c1F)CC(O)=N2

>  <molecule_id>  (11) 
3266844

>  <enum_code>  (11) 
B

>  <codes>  (11) 
MolPort-019-792-821

>  <libraries>  (11) 
molport

>  <PH4_SCORE>  (11) 
-66.8546

>  <o3da_score>  (11) 
77.716780448421673

>  <o3da_score_rel>  (11) 
0.36811313102576554

>  <o3da_align>  (11) 
0.58062829470094612

$$$$
8826979
     RDKit          3D

 20 22  0  0  1  0  0  0  0  0999 V2000
    7.2049   -0.4710   16.5943 C   0  0  0  0  0  0  0  0  0  0  0  0
    6.8475    0.2061   17.8214 N   0  0  0  0  0  0  0  0  0  0  0  0
    7.3097   -0.3003   18.9875 C   0  0  0  0  0  0  0  0  0  0  0  0
    7.0775    0.2029   20.1781 N   0  0  0  0  0  0  0  0  0  0  0  0
    7.6957   -0.5540   21.1403 C   0  0  0  0  0  0  0  0  0  0  0  0
    8.4076   -1.6332   20.6735 C   0  0  0  0  0  0  0  0  0  0  0  0
    8.2909   -1.7225   18.9779 S   0  0  0  0  0  0  0  0  0  0  0  0
    9.1445   -2.6055   21.5276 C   0  0  1  0  0  0  0  0  0  0  0  0
   10.6548   -2.4467   21.4273 C   0  0  0  0  0  0  0  0  0  0  0  0
   11.2766   -1.3522   22.0612 C   0  0  0  0  0  0  0  0  0  0  0  0
   12.6644   -1.1797   22.0113 C   0  0  0  0  0  0  0  0  0  0  0  0
   13.4569   -2.1009   21.3314 C   0  0  0  0  0  0  0  0  0  0  0  0
   12.8561   -3.1884   20.7100 C   0  0  0  0  0  0  0  0  0  0  0  0
   13.6225   -4.0739   20.0580 F   0  0  0  0  0  0  0  0  0  0  0  0
   11.4750   -3.3634   20.7582 C   0  0  0  0  0  0  0  0  0  0  0  0
   10.9411   -4.4286   20.1471 F   0  0  0  0  0  0  0  0  0  0  0  0
    8.5790   -2.5266   22.9544 C   0  0  0  0  0  0  0  0  0  0  0  0
    8.0547   -1.1555   23.2872 C   0  0  0  0  0  0  0  0  0  0  0  0
    7.9989   -0.9181   24.6081 O   0  0  0  0  0  0  0  0  0  0  0  0
    7.6132   -0.2328   22.5020 N   0  0  0  0  0  0  0  0  0  0  0  0
  1  2  1  0
  2  3  1  0
  3  4  2  0
  4  5  1  0
  5  6  2  0
  6  7  1  0
  6  8  1  0
  7  3  1  0
  8  9  1  1
  8 17  1  0
  9 10  2  0
 10 11  1  0
 11 12  2  0
 12 13  1  0
 13 14  1  0
 13 15  2  0
 15 16  1  0
 15  9  1  0
 17 18  1  0
 18 19  1  0
 18 20  2  0
 20  5  1  0
M  END
>  <enum_smi>  (12) 
CNc1nc2c(s1)C(c1cccc(F)c1F)CC(O)=N2

>  <std_smi>  (12) 
CNc1nc2c(s1)C(c1cccc(F)c1F)CC(O)=N2

>  <molecule_id>  (12) 
3266844

>  <enum_code>  (12) 
B

>  <codes>  (12) 
MolPort-019-792-821

>  <libraries>  (12) 
molport

>  <PH4_SCORE>  (12) 
-66.6634

>  <o3da_score>  (12) 
80.391578955520927

>  <o3da_score_rel>  (12) 
0.38078257574066615

>  <o3da_align>  (12) 
0.44797304849541603

$$$$
8826979
     RDKit          3D

 20 22  0  0  1  0  0  0  0  0999 V2000
    5.9869    1.3214   18.0304 C   0  0  0  0  0  0  0  0  0  0  0  0
    6.9118    0.2129   17.9419 N   0  0  0  0  0  0  0  0  0  0  0  0
    7.2876   -0.3977   19.0891 C   0  0  0  0  0  0  0  0  0  0  0  0
    6.8774   -0.0696   20.2927 N   0  0  0  0  0  0  0  0  0  0  0  0
    7.4541   -0.8893   21.2289 C   0  0  0  0  0  0  0  0  0  0  0  0
    8.3132   -1.8394   20.7305 C   0  0  0  0  0  0  0  0  0  0  0  0
    8.3949   -1.7229   19.0344 S   0  0  0  0  0  0  0  0  0  0  0  0
    9.0400   -2.8488   21.5495 C   0  0  1  0  0  0  0  0  0  0  0  0
   10.5301   -2.5565   21.6534 C   0  0  0  0  0  0  0  0  0  0  0  0
   11.4544   -3.5936   21.4155 C   0  0  0  0  0  0  0  0  0  0  0  0
   12.8331   -3.3633   21.4803 C   0  0  0  0  0  0  0  0  0  0  0  0
   13.3136   -2.0908   21.7788 C   0  0  0  0  0  0  0  0  0  0  0  0
   12.4122   -1.0588   22.0068 C   0  0  0  0  0  0  0  0  0  0  0  0
   12.8784    0.1651   22.2920 F   0  0  0  0  0  0  0  0  0  0  0  0
   11.0391   -1.2845   21.9424 C   0  0  0  0  0  0  0  0  0  0  0  0
   10.2086   -0.2581   22.1663 F   0  0  0  0  0  0  0  0  0  0  0  0
    8.3144   -2.9969   22.8961 C   0  0  0  0  0  0  0  0  0  0  0  0
    7.6280   -1.7260   23.3192 C   0  0  0  0  0  0  0  0  0  0  0  0
    7.4032   -1.6628   24.6420 O   0  0  0  0  0  0  0  0  0  0  0  0
    7.1905   -0.7505   22.5983 N   0  0  0  0  0  0  0  0  0  0  0  0
  1  2  1  0
  2  3  1  0
  3  4  2  0
  4  5  1  0
  5  6  2  0
  6  7  1  0
  6  8  1  0
  7  3  1  0
  8  9  1  1
  8 17  1  0
  9 10  2  0
 10 11  1  0
 11 12  2  0
 12 13  1  0
 13 14  1  0
 13 15  2  0
 15 16  1  0
 15  9  1  0
 17 18  1  0
 18 19  1  0
 18 20  2  0
 20  5  1  0
M  END
>  <enum_smi>  (13) 
CNc1nc2c(s1)C(c1cccc(F)c1F)CC(O)=N2

>  <std_smi>  (13) 
CNc1nc2c(s1)C(c1cccc(F)c1F)CC(O)=N2

>  <molecule_id>  (13) 
3266844

>  <enum_code>  (13) 
B

>  <codes>  (13) 
MolPort-019-792-821

>  <libraries>  (13) 
molport

>  <PH4_SCORE>  (13) 
-65.901

>  <o3da_score>  (13) 
89.165374515423181

>  <o3da_score_rel>  (13) 
0.42234051645694515

>  <o3da_align>  (13) 
0.55728996868456415

$$$$
8826979
     RDKit          3D

 20 22  0  0  1  0  0  0  0  0999 V2000
    8.0336   -4.3966   17.1629 C   0  0  0  0  0  0  0  0  0  0  0  0
    8.7720   -4.6033   18.3893 N   0  0  0  0  0  0  0  0  0  0  0  0
    8.6072   -3.7100   19.3917 C   0  0  0  0  0  0  0  0  0  0  0  0
    7.8288   -2.6532   19.3456 N   0  0  0  0  0  0  0  0  0  0  0  0
    7.8981   -1.9629   20.5287 C   0  0  0  0  0  0  0  0  0  0  0  0
    8.7414   -2.4968   21.4737 C   0  0  0  0  0  0  0  0  0  0  0  0
    9.4620   -3.9192   20.8786 S   0  0  0  0  0  0  0  0  0  0  0  0
    8.9659   -1.9350   22.8346 C   0  0  1  0  0  0  0  0  0  0  0  0
   10.3358   -1.2889   22.9833 C   0  0  0  0  0  0  0  0  0  0  0  0
   11.3567   -1.6188   22.0692 C   0  0  0  0  0  0  0  0  0  0  0  0
   12.6242   -1.0327   22.1573 C   0  0  0  0  0  0  0  0  0  0  0  0
   12.8934   -0.1019   23.1574 C   0  0  0  0  0  0  0  0  0  0  0  0
   11.8925    0.2376   24.0590 C   0  0  0  0  0  0  0  0  0  0  0  0
   12.1548    1.1353   25.0192 F   0  0  0  0  0  0  0  0  0  0  0  0
   10.6294   -0.3436   23.9736 C   0  0  0  0  0  0  0  0  0  0  0  0
    9.6954    0.0173   24.8629 F   0  0  0  0  0  0  0  0  0  0  0  0
    7.7793   -1.0242   23.1871 C   0  0  0  0  0  0  0  0  0  0  0  0
    7.1667   -0.3854   21.9697 C   0  0  0  0  0  0  0  0  0  0  0  0
    6.4779    0.7331   22.2507 O   0  0  0  0  0  0  0  0  0  0  0  0
    7.1669   -0.7870   20.7444 N   0  0  0  0  0  0  0  0  0  0  0  0
  1  2  1  0
  2  3  1  0
  3  4  2  0
  4  5  1  0
  5  6  2  0
  6  7  1  0
  6  8  1  0
  7  3  1  0
  8  9  1  6
  8 17  1  0
  9 10  2  0
 10 11  1  0
 11 12  2  0
 12 13  1  0
 13 14  1  0
 13 15  2  0
 15 16  1  0
 15  9  1  0
 17 18  1  0
 18 19  1  0
 18 20  2  0
 20  5  1  0
M  END
>  <enum_smi>  (14) 
CNc1nc2c(s1)C(c1cccc(F)c1F)CC(O)=N2

>  <std_smi>  (14) 
CNc1nc2c(s1)C(c1cccc(F)c1F)CC(O)=N2

>  <molecule_id>  (14) 
3266844

>  <enum_code>  (14) 
B

>  <codes>  (14) 
MolPort-019-792-821

>  <libraries>  (14) 
molport

>  <PH4_SCORE>  (14) 
-65.6818

>  <o3da_score>  (14) 
77.446271840545407

>  <o3da_score_rel>  (14) 
0.36683184054975515

>  <o3da_align>  (14) 
0.29679155538913177

$$$$
8826979
     RDKit          3D

 20 22  0  0  1  0  0  0  0  0999 V2000
    5.3897    1.1801   18.0088 C   0  0  0  0  0  0  0  0  0  0  0  0
    4.9678    1.0245   19.3834 N   0  0  0  0  0  0  0  0  0  0  0  0
    5.8293    0.4506   20.2543 C   0  0  0  0  0  0  0  0  0  0  0  0
    5.6167    0.2954   21.5408 N   0  0  0  0  0  0  0  0  0  0  0  0
    6.6929   -0.3200   22.1274 C   0  0  0  0  0  0  0  0  0  0  0  0
    7.7309   -0.6253   21.2797 C   0  0  0  0  0  0  0  0  0  0  0  0
    7.3498   -0.1469   19.6914 S   0  0  0  0  0  0  0  0  0  0  0  0
    8.9915   -1.3082   21.6827 C   0  0  1  0  0  0  0  0  0  0  0  0
   10.1898   -0.3698   21.6906 C   0  0  0  0  0  0  0  0  0  0  0  0
   10.0232    0.9648   21.2692 C   0  0  0  0  0  0  0  0  0  0  0  0
   11.0935    1.8661   21.2802 C   0  0  0  0  0  0  0  0  0  0  0  0
   12.3488    1.4517   21.7174 C   0  0  0  0  0  0  0  0  0  0  0  0
   12.5232    0.1408   22.1431 C   0  0  0  0  0  0  0  0  0  0  0  0
   13.7326   -0.2539   22.5651 F   0  0  0  0  0  0  0  0  0  0  0  0
   11.4597   -0.7587   22.1341 C   0  0  0  0  0  0  0  0  0  0  0  0
   11.6746   -2.0112   22.5568 F   0  0  0  0  0  0  0  0  0  0  0  0
    8.7419   -2.0500   23.0053 C   0  0  0  0  0  0  0  0  0  0  0  0
    7.6990   -1.3727   23.8534 C   0  0  0  0  0  0  0  0  0  0  0  0
    7.7898   -1.6905   25.1554 O   0  0  0  0  0  0  0  0  0  0  0  0
    6.7285   -0.6008   23.4999 N   0  0  0  0  0  0  0  0  0  0  0  0
  1  2  1  0
  2  3  1  0
  3  4  2  0
  4  5  1  0
  5  6  2  0
  6  7  1  0
  6  8  1  0
  7  3  1  0
  8  9  1  1
  8 17  1  0
  9 10  2  0
 10 11  1  0
 11 12  2  0
 12 13  1  0
 13 14  1  0
 13 15  2  0
 15 16  1  0
 15  9  1  0
 17 18  1  0
 18 19  1  0
 18 20  2  0
 20  5  1  0
M  END
>  <enum_smi>  (15) 
CNc1nc2c(s1)C(c1cccc(F)c1F)CC(O)=N2

>  <std_smi>  (15) 
CNc1nc2c(s1)C(c1cccc(F)c1F)CC(O)=N2

>  <molecule_id>  (15) 
3266844

>  <enum_code>  (15) 
B

>  <codes>  (15) 
MolPort-019-792-821

>  <libraries>  (15) 
molport

>  <PH4_SCORE>  (15) 
-65.5259

>  <o3da_score>  (15) 
77.666681776293828

>  <o3da_score_rel>  (15) 
0.36787583376575544

>  <o3da_align>  (15) 
0.51182452350899599

$$$$
8828101
     RDKit          3D

 19 20  0  0  1  0  0  0  0  0999 V2000
    8.0500   -0.9495   25.0131 C   0  0  0  0  0  0  0  0  0  0  0  0
    7.7505   -1.3310   23.5676 C   0  0  0  0  0  0  0  0  0  0  0  0
    8.9041   -2.1247   22.9027 C   0  0  2  0  0  0  0  0  0  0  0  0
   10.2447   -1.3880   23.0011 C   0  0  0  0  0  0  0  0  0  0  0  0
   11.2151   -1.7104   23.9516 C   0  0  0  0  0  0  0  0  0  0  0  0
   12.3941   -0.9680   24.0093 C   0  0  0  0  0  0  0  0  0  0  0  0
   12.5795    0.0890   23.1305 C   0  0  0  0  0  0  0  0  0  0  0  0
   11.5672    0.3687   22.2325 C   0  0  0  0  0  0  0  0  0  0  0  0
   10.4112   -0.3276   22.1619 N   0  0  0  0  0  0  0  0  0  0  0  0
    8.5549   -2.6315   21.5550 N   0  0  0  0  0  0  0  0  0  0  0  0
    8.5957   -4.0762   21.3744 C   0  0  0  0  0  0  0  0  0  0  0  0
    8.1770   -1.7318   20.5454 C   0  0  0  0  0  0  0  0  0  0  0  0
    8.4167   -0.5288   20.6612 O   0  0  0  0  0  0  0  0  0  0  0  0
    7.5044   -2.2385   19.3535 C   0  0  0  0  0  0  0  0  0  0  0  0
    7.0291   -3.5244   19.3188 O   0  0  0  0  0  0  0  0  0  0  0  0
    6.4133   -3.7039   18.1254 C   0  0  0  0  0  0  0  0  0  0  0  0
    6.4622   -2.5514   17.3823 C   0  0  0  0  0  0  0  0  0  0  0  0
    7.1549   -1.5912   18.1721 C   0  0  0  0  0  0  0  0  0  0  0  0
    7.4392   -0.1796   17.8098 C   0  0  0  0  0  0  0  0  0  0  0  0
  1  2  1  0
  3  2  1  6
  3  4  1  0
  3 10  1  0
  4  5  2  0
  5  6  1  0
  6  7  2  0
  7  8  1  0
  8  9  2  0
  9  4  1  0
 10 11  1  0
 10 12  1  0
 12 13  2  0
 12 14  1  0
 14 15  1  0
 15 16  1  0
 16 17  2  0
 17 18  1  0
 18 19  1  0
 18 14  2  0
M  END
>  <enum_smi>  (16) 
CCC(c1ccccn1)N(C)C(=O)c1occc1C

>  <std_smi>  (16) 
CCC(c1ccccn1)N(C)C(=O)c1occc1C

>  <molecule_id>  (16) 
3310221

>  <enum_code>  (16) 
B

>  <codes>  (16) 
MolPort-019-893-774

>  <libraries>  (16) 
molport

>  <PH4_SCORE>  (16) 
-58.5515

>  <o3da_score>  (16) 
76.437360967835843

>  <o3da_score_rel>  (16) 
0.36205303553317908

>  <o3da_align>  (16) 
0.29442025567826341

$$$$
8828101
     RDKit          3D

 19 20  0  0  1  0  0  0  0  0999 V2000
   10.0609   -2.5776   18.4430 C   0  0  0  0  0  0  0  0  0  0  0  0
    9.1460   -1.3653   18.3090 C   0  0  0  0  0  0  0  0  0  0  0  0
    8.0636   -1.3022   19.4169 C   0  0  2  0  0  0  0  0  0  0  0  0
    7.0757   -0.1514   19.1952 C   0  0  0  0  0  0  0  0  0  0  0  0
    6.3291    0.4128   20.2312 C   0  0  0  0  0  0  0  0  0  0  0  0
    5.4175    1.4290   19.9472 C   0  0  0  0  0  0  0  0  0  0  0  0
    5.2557    1.8550   18.6372 C   0  0  0  0  0  0  0  0  0  0  0  0
    6.0083    1.2356   17.6579 C   0  0  0  0  0  0  0  0  0  0  0  0
    6.8909    0.2421   17.9038 N   0  0  0  0  0  0  0  0  0  0  0  0
    8.6289   -1.4002   20.7828 N   0  0  0  0  0  0  0  0  0  0  0  0
    8.5969   -2.7166   21.4054 C   0  0  0  0  0  0  0  0  0  0  0  0
    9.1868   -0.2649   21.3924 C   0  0  0  0  0  0  0  0  0  0  0  0
    8.9497    0.8600   20.9494 O   0  0  0  0  0  0  0  0  0  0  0  0
   10.0443   -0.4318   22.5615 C   0  0  0  0  0  0  0  0  0  0  0  0
   10.6995   -1.6169   22.7781 O   0  0  0  0  0  0  0  0  0  0  0  0
   11.4544   -1.4722   23.8939 C   0  0  0  0  0  0  0  0  0  0  0  0
   11.3182   -0.2059   24.4042 C   0  0  0  0  0  0  0  0  0  0  0  0
   10.4177    0.4815   23.5429 C   0  0  0  0  0  0  0  0  0  0  0  0
    9.9735    1.8931   23.6640 C   0  0  0  0  0  0  0  0  0  0  0  0
  1  2  1  0
  3  2  1  6
  3  4  1  0
  3 10  1  0
  4  5  2  0
  5  6  1  0
  6  7  2  0
  7  8  1  0
  8  9  2  0
  9  4  1  0
 10 11  1  0
 10 12  1  0
 12 13  2  0
 12 14  1  0
 14 15  1  0
 15 16  1  0
 16 17  2  0
 17 18  1  0
 18 19  1  0
 18 14  2  0
M  END
>  <enum_smi>  (17) 
CCC(c1ccccn1)N(C)C(=O)c1occc1C

>  <std_smi>  (17) 
CCC(c1ccccn1)N(C)C(=O)c1occc1C

>  <molecule_id>  (17) 
3310221

>  <enum_code>  (17) 
B

>  <codes>  (17) 
MolPort-019-893-774

>  <libraries>  (17) 
molport

>  <PH4_SCORE>  (17) 
-58.4843

>  <o3da_score>  (17) 
88.073444826289389

>  <o3da_score_rel>  (17) 
0.41716848469742324

>  <o3da_align>  (17) 
0.51546867760507387

$$$$
8828101
     RDKit          3D

 19 20  0  0  1  0  0  0  0  0999 V2000
    9.3156   -3.3629   19.5774 C   0  0  0  0  0  0  0  0  0  0  0  0
    8.5441   -2.1312   19.1169 C   0  0  0  0  0  0  0  0  0  0  0  0
    7.6997   -1.4915   20.2486 C   0  0  2  0  0  0  0  0  0  0  0  0
    6.8361   -0.3315   19.7405 C   0  0  0  0  0  0  0  0  0  0  0  0
    6.6914   -0.0359   18.3838 C   0  0  0  0  0  0  0  0  0  0  0  0
    5.9234    1.0618   17.9975 C   0  0  0  0  0  0  0  0  0  0  0  0
    5.3254    1.8525   18.9677 C   0  0  0  0  0  0  0  0  0  0  0  0
    5.5309    1.5174   20.2923 C   0  0  0  0  0  0  0  0  0  0  0  0
    6.2784    0.4657   20.6945 N   0  0  0  0  0  0  0  0  0  0  0  0
    8.4900   -1.2083   21.4693 N   0  0  0  0  0  0  0  0  0  0  0  0
    8.4232   -2.2035   22.5309 C   0  0  0  0  0  0  0  0  0  0  0  0
    9.2747   -0.0461   21.5410 C   0  0  0  0  0  0  0  0  0  0  0  0
    9.0896    0.8802   20.7502 O   0  0  0  0  0  0  0  0  0  0  0  0
   10.3065    0.0557   22.5680 C   0  0  0  0  0  0  0  0  0  0  0  0
   10.8634   -1.0759   23.1066 O   0  0  0  0  0  0  0  0  0  0  0  0
   11.8177   -0.6866   23.9862 C   0  0  0  0  0  0  0  0  0  0  0  0
   11.9078    0.6821   24.0217 C   0  0  0  0  0  0  0  0  0  0  0  0
   10.9431    1.1739   23.0981 C   0  0  0  0  0  0  0  0  0  0  0  0
   10.6770    2.5956   22.7624 C   0  0  0  0  0  0  0  0  0  0  0  0
  1  2  1  0
  3  2  1  6
  3  4  1  0
  3 10  1  0
  4  5  2  0
  5  6  1  0
  6  7  2  0
  7  8  1  0
  8  9  2  0
  9  4  1  0
 10 11  1  0
 10 12  1  0
 12 13  2  0
 12 14  1  0
 14 15  1  0
 15 16  1  0
 16 17  2  0
 17 18  1  0
 18 19  1  0
 18 14  2  0
M  END
>  <enum_smi>  (18) 
CCC(c1ccccn1)N(C)C(=O)c1occc1C

>  <std_smi>  (18) 
CCC(c1ccccn1)N(C)C(=O)c1occc1C

>  <molecule_id>  (18) 
3310221

>  <enum_code>  (18) 
B

>  <codes>  (18) 
MolPort-019-893-774

>  <libraries>  (18) 
molport

>  <PH4_SCORE>  (18) 
-57.8503

>  <o3da_score>  (18) 
99.135897891645556

>  <o3da_score_rel>  (18) 
0.4695668755110578

>  <o3da_align>  (18) 
0.62166037278716735

$$$$
8828101
     RDKit          3D

 19 20  0  0  1  0  0  0  0  0999 V2000
    5.3142   -1.8660   22.1311 C   0  0  0  0  0  0  0  0  0  0  0  0
    5.4424   -0.3982   22.5229 C   0  0  0  0  0  0  0  0  0  0  0  0
    6.6882    0.2843   21.9023 C   0  0  2  0  0  0  0  0  0  0  0  0
    6.5984    0.3720   20.3746 C   0  0  0  0  0  0  0  0  0  0  0  0
    5.6292    1.1324   19.7178 C   0  0  0  0  0  0  0  0  0  0  0  0
    5.5819    1.1305   18.3242 C   0  0  0  0  0  0  0  0  0  0  0  0
    6.4902    0.3620   17.6109 C   0  0  0  0  0  0  0  0  0  0  0  0
    7.4061   -0.3861   18.3254 C   0  0  0  0  0  0  0  0  0  0  0  0
    7.4675   -0.4106   19.6752 N   0  0  0  0  0  0  0  0  0  0  0  0
    7.9640   -0.2486   22.4344 N   0  0  0  0  0  0  0  0  0  0  0  0
    7.8693   -1.1096   23.6056 C   0  0  0  0  0  0  0  0  0  0  0  0
    9.1734    0.0586   21.7906 C   0  0  0  0  0  0  0  0  0  0  0  0
    9.2322    0.9906   20.9870 O   0  0  0  0  0  0  0  0  0  0  0  0
   10.3622   -0.7333   22.0901 C   0  0  0  0  0  0  0  0  0  0  0  0
   10.2412   -2.0169   22.5576 O   0  0  0  0  0  0  0  0  0  0  0  0
   11.4900   -2.5236   22.6975 C   0  0  0  0  0  0  0  0  0  0  0  0
   12.4285   -1.5993   22.3137 C   0  0  0  0  0  0  0  0  0  0  0  0
   11.7100   -0.4403   21.9060 C   0  0  0  0  0  0  0  0  0  0  0  0
   12.2853    0.8241   21.3817 C   0  0  0  0  0  0  0  0  0  0  0  0
  1  2  1  0
  3  2  1  6
  3  4  1  0
  3 10  1  0
  4  5  2  0
  5  6  1  0
  6  7  2  0
  7  8  1  0
  8  9  2  0
  9  4  1  0
 10 11  1  0
 10 12  1  0
 12 13  2  0
 12 14  1  0
 14 15  1  0
 15 16  1  0
 16 17  2  0
 17 18  1  0
 18 19  1  0
 18 14  2  0
M  END
>  <enum_smi>  (19) 
CCC(c1ccccn1)N(C)C(=O)c1occc1C

>  <std_smi>  (19) 
CCC(c1ccccn1)N(C)C(=O)c1occc1C

>  <molecule_id>  (19) 
3310221

>  <enum_code>  (19) 
B

>  <codes>  (19) 
MolPort-019-893-774

>  <libraries>  (19) 
molport

>  <PH4_SCORE>  (19) 
-57.7797

>  <o3da_score>  (19) 
76.809150880377231

>  <o3da_score_rel>  (19) 
0.3638140548136965

>  <o3da_align>  (19) 
0.461106254892099

$$$$
8828101
     RDKit          3D

 19 20  0  0  1  0  0  0  0  0999 V2000
    8.0287   -0.8831   25.0174 C   0  0  0  0  0  0  0  0  0  0  0  0
    8.3662   -2.2355   24.3996 C   0  0  0  0  0  0  0  0  0  0  0  0
    8.8760   -2.1205   22.9402 C   0  0  2  0  0  0  0  0  0  0  0  0
   10.2189   -1.3866   22.8530 C   0  0  0  0  0  0  0  0  0  0  0  0
   11.3167   -1.9009   22.1606 C   0  0  0  0  0  0  0  0  0  0  0  0
   12.5205   -1.1972   22.1604 C   0  0  0  0  0  0  0  0  0  0  0  0
   12.6137   -0.0029   22.8597 C   0  0  0  0  0  0  0  0  0  0  0  0
   11.4959    0.4349   23.5439 C   0  0  0  0  0  0  0  0  0  0  0  0
   10.3208   -0.2320   23.5693 N   0  0  0  0  0  0  0  0  0  0  0  0
    7.8327   -1.6506   21.9991 N   0  0  0  0  0  0  0  0  0  0  0  0
    6.4624   -1.6581   22.4931 C   0  0  0  0  0  0  0  0  0  0  0  0
    8.1960   -1.1982   20.7204 C   0  0  0  0  0  0  0  0  0  0  0  0
    9.3077   -1.4615   20.2591 O   0  0  0  0  0  0  0  0  0  0  0  0
    7.2394   -0.4195   19.9407 C   0  0  0  0  0  0  0  0  0  0  0  0
    6.2200    0.2532   20.5645 O   0  0  0  0  0  0  0  0  0  0  0  0
    5.5267    0.9243   19.6133 C   0  0  0  0  0  0  0  0  0  0  0  0
    6.0842    0.7164   18.3770 C   0  0  0  0  0  0  0  0  0  0  0  0
    7.2017   -0.1418   18.5776 C   0  0  0  0  0  0  0  0  0  0  0  0
    8.1427   -0.6342   17.5400 C   0  0  0  0  0  0  0  0  0  0  0  0
  1  2  1  0
  3  2  1  1
  3  4  1  0
  3 10  1  0
  4  5  2  0
  5  6  1  0
  6  7  2  0
  7  8  1  0
  8  9  2  0
  9  4  1  0
 10 11  1  0
 10 12  1  0
 12 13  2  0
 12 14  1  0
 14 15  1  0
 15 16  1  0
 16 17  2  0
 17 18  1  0
 18 19  1  0
 18 14  2  0
M  END
>  <enum_smi>  (20) 
CCC(c1ccccn1)N(C)C(=O)c1occc1C

>  <std_smi>  (20) 
CCC(c1ccccn1)N(C)C(=O)c1occc1C

>  <molecule_id>  (20) 
3310221

>  <enum_code>  (20) 
B

>  <codes>  (20) 
MolPort-019-893-774

>  <libraries>  (20) 
molport

>  <PH4_SCORE>  (20) 
-57.1905

>  <o3da_score>  (20) 
89.80017676618391

>  <o3da_score_rel>  (20) 
0.42534731939913367

>  <o3da_align>  (20) 
0.34795189478265592

$$$$
8829603
     RDKit          3D

 20 22  0  0  1  0  0  0  0  0999 V2000
    6.7678   -2.6003   25.2914 C   0  0  0  0  0  0  0  0  0  0  0  0
    7.5315   -1.2963   24.9934 C   0  0  1  0  0  0  0  0  0  0  0  0
    8.0428   -1.3825   23.5549 C   0  0  0  0  0  0  0  0  0  0  0  0
    9.2331   -2.0572   23.2455 C   0  0  0  0  0  0  0  0  0  0  0  0
    9.6920   -2.1182   21.9314 C   0  0  0  0  0  0  0  0  0  0  0  0
    8.9671   -1.5042   20.9089 C   0  0  0  0  0  0  0  0  0  0  0  0
    7.7728   -0.8191   21.1811 C   0  0  0  0  0  0  0  0  0  0  0  0
    7.0074   -0.1732   20.1013 C   0  0  0  0  0  0  0  0  0  0  0  0
    7.4555   -0.2424   18.7686 C   0  0  0  0  0  0  0  0  0  0  0  0
    6.7516    0.3649   17.7168 C   0  0  0  0  0  0  0  0  0  0  0  0
    5.5718    1.0583   18.0119 C   0  0  0  0  0  0  0  0  0  0  0  0
    4.7126    1.7309   17.1775 N   0  0  0  0  0  0  0  0  0  0  0  0
    3.7686    2.1998   17.9607 C   0  0  0  0  0  0  0  0  0  0  0  0
    3.9806    1.8592   19.2670 N   0  0  0  0  0  0  0  0  0  0  0  0
    5.1351    1.1218   19.3296 C   0  0  0  0  0  0  0  0  0  0  0  0
    5.8173    0.5239   20.3938 C   0  0  0  0  0  0  0  0  0  0  0  0
    7.3256   -0.7670   22.5134 C   0  0  0  0  0  0  0  0  0  0  0  0
    6.7237   -0.0693   25.2278 N   0  0  0  0  0  0  0  0  0  0  0  0
    7.5040    1.1393   24.9246 C   0  0  0  0  0  0  0  0  0  0  0  0
    6.2275    0.0230   26.6033 C   0  0  0  0  0  0  0  0  0  0  0  0
  2  1  1  6
  2  3  1  0
  2 18  1  0
  3  4  2  0
  4  5  1  0
  5  6  2  0
  6  7  1  0
  7  8  1  0
  7 17  2  0
  8  9  2  0
  9 10  1  0
 10 11  2  0
 11 12  1  0
 12 13  2  0
 13 14  1  0
 14 15  1  0
 15 16  2  0
 15 11  1  0
 16  8  1  0
 17  3  1  0
 18 19  1  0
 18 20  1  0
M  END
>  <enum_smi>  (21) 
CC(c1cccc(-c2ccc3nc[nH]c3c2)c1)N(C)C

>  <std_smi>  (21) 
CC(c1cccc(-c2ccc3nc[nH]c3c2)c1)N(C)C

>  <molecule_id>  (21) 
3196722

>  <enum_code>  (21) 
B

>  <codes>  (21) 
MolPort-016-626-929

>  <libraries>  (21) 
molport

>  <PH4_SCORE>  (21) 
-58.7563

>  <o3da_score>  (21) 
62.44266316948486

>  <o3da_score_rel>  (21) 
0.29576578077834076

>  <o3da_align>  (21) 
0.2048515291174825

$$$$
8829603
     RDKit          3D

 20 22  0  0  1  0  0  0  0  0999 V2000
   10.6509   -3.8637   23.4493 C   0  0  0  0  0  0  0  0  0  0  0  0
   10.5996   -2.8453   22.2948 C   0  0  1  0  0  0  0  0  0  0  0  0
    9.3049   -2.0457   22.4458 C   0  0  0  0  0  0  0  0  0  0  0  0
    8.6946   -1.8799   23.6978 C   0  0  0  0  0  0  0  0  0  0  0  0
    7.5092   -1.1575   23.8183 C   0  0  0  0  0  0  0  0  0  0  0  0
    6.9175   -0.5922   22.6876 C   0  0  0  0  0  0  0  0  0  0  0  0
    7.4989   -0.7387   21.4185 C   0  0  0  0  0  0  0  0  0  0  0  0
    6.8750   -0.1400   20.2263 C   0  0  0  0  0  0  0  0  0  0  0  0
    5.6776    0.5916   20.3384 C   0  0  0  0  0  0  0  0  0  0  0  0
    5.0555    1.1719   19.2218 C   0  0  0  0  0  0  0  0  0  0  0  0
    5.6500    1.0117   17.9644 C   0  0  0  0  0  0  0  0  0  0  0  0
    5.2474    1.4712   16.7343 N   0  0  0  0  0  0  0  0  0  0  0  0
    6.1581    1.0415   15.8913 C   0  0  0  0  0  0  0  0  0  0  0  0
    7.1332    0.3232   16.5240 N   0  0  0  0  0  0  0  0  0  0  0  0
    6.8323    0.2888   17.8615 C   0  0  0  0  0  0  0  0  0  0  0  0
    7.4718   -0.2967   18.9586 C   0  0  0  0  0  0  0  0  0  0  0  0
    8.6946   -1.4718   21.3162 C   0  0  0  0  0  0  0  0  0  0  0  0
   11.7966   -1.9649   22.2273 N   0  0  0  0  0  0  0  0  0  0  0  0
   11.9400   -1.1777   23.4607 C   0  0  0  0  0  0  0  0  0  0  0  0
   11.7564   -1.0479   21.0853 C   0  0  0  0  0  0  0  0  0  0  0  0
  2  1  1  1
  2  3  1  0
  2 18  1  0
  3  4  2  0
  4  5  1  0
  5  6  2  0
  6  7  1  0
  7  8  1  0
  7 17  2  0
  8  9  2  0
  9 10  1  0
 10 11  2  0
 11 12  1  0
 12 13  2  0
 13 14  1  0
 14 15  1  0
 15 16  2  0
 15 11  1  0
 16  8  1  0
 17  3  1  0
 18 19  1  0
 18 20  1  0
M  END
>  <enum_smi>  (22) 
CC(c1cccc(-c2ccc3nc[nH]c3c2)c1)N(C)C

>  <std_smi>  (22) 
CC(c1cccc(-c2ccc3nc[nH]c3c2)c1)N(C)C

>  <molecule_id>  (22) 
3196722

>  <enum_code>  (22) 
B

>  <codes>  (22) 
MolPort-016-626-929

>  <libraries>  (22) 
molport

>  <PH4_SCORE>  (22) 
-58.6926

>  <o3da_score>  (22) 
67.687103167717979

>  <o3da_score_rel>  (22) 
0.32060658371803019

>  <o3da_align>  (22) 
0.3668454260409551

$$$$
8829603
     RDKit          3D

 20 22  0  0  1  0  0  0  0  0999 V2000
    7.8630   -1.0405   23.2728 C   0  0  0  0  0  0  0  0  0  0  0  0
    8.9494   -2.0934   22.9832 C   0  0  1  0  0  0  0  0  0  0  0  0
   10.2983   -1.3732   22.9849 C   0  0  0  0  0  0  0  0  0  0  0  0
   10.5005   -0.2102   23.7427 C   0  0  0  0  0  0  0  0  0  0  0  0
   11.7321    0.4412   23.7257 C   0  0  0  0  0  0  0  0  0  0  0  0
   12.7777   -0.0611   22.9495 C   0  0  0  0  0  0  0  0  0  0  0  0
   12.6112   -1.2213   22.1775 C   0  0  0  0  0  0  0  0  0  0  0  0
   13.7158   -1.7518   21.3602 C   0  0  0  0  0  0  0  0  0  0  0  0
   13.5401   -2.9200   20.5947 C   0  0  0  0  0  0  0  0  0  0  0  0
   14.5730   -3.4536   19.8080 C   0  0  0  0  0  0  0  0  0  0  0  0
   15.8104   -2.7989   19.7920 C   0  0  0  0  0  0  0  0  0  0  0  0
   16.9649   -3.1127   19.1174 N   0  0  0  0  0  0  0  0  0  0  0  0
   17.8240   -2.1770   19.4512 C   0  0  0  0  0  0  0  0  0  0  0  0
   17.2741   -1.2709   20.3135 N   0  0  0  0  0  0  0  0  0  0  0  0
   15.9762   -1.6458   20.5496 C   0  0  0  0  0  0  0  0  0  0  0  0
   14.9626   -1.0940   21.3392 C   0  0  0  0  0  0  0  0  0  0  0  0
   11.3612   -1.8647   22.2062 C   0  0  0  0  0  0  0  0  0  0  0  0
    8.9275   -3.2430   23.9272 N   0  0  0  0  0  0  0  0  0  0  0  0
    9.1378   -2.7909   25.3103 C   0  0  0  0  0  0  0  0  0  0  0  0
    9.9363   -4.2552   23.6039 C   0  0  0  0  0  0  0  0  0  0  0  0
  2  1  1  1
  2  3  1  0
  2 18  1  0
  3  4  2  0
  4  5  1  0
  5  6  2  0
  6  7  1  0
  7  8  1  0
  7 17  2  0
  8  9  2  0
  9 10  1  0
 10 11  2  0
 11 12  1  0
 12 13  2  0
 13 14  1  0
 14 15  1  0
 15 16  2  0
 15 11  1  0
 16  8  1  0
 17  3  1  0
 18 19  1  0
 18 20  1  0
M  END
>  <enum_smi>  (23) 
CC(c1cccc(-c2ccc3nc[nH]c3c2)c1)N(C)C

>  <std_smi>  (23) 
CC(c1cccc(-c2ccc3nc[nH]c3c2)c1)N(C)C

>  <molecule_id>  (23) 
3196722

>  <enum_code>  (23) 
B

>  <codes>  (23) 
MolPort-016-626-929

>  <libraries>  (23) 
molport

>  <PH4_SCORE>  (23) 
-58.5388

>  <o3da_score>  (23) 
66.150749418927319

>  <o3da_score_rel>  (23) 
0.31332949393681053

>  <o3da_align>  (23) 
0.14874576351534485

$$$$
8829603
     RDKit          3D

 20 22  0  0  1  0  0  0  0  0999 V2000
    9.1795   -3.4660   23.8383 C   0  0  0  0  0  0  0  0  0  0  0  0
    8.9057   -2.2588   22.9216 C   0  0  1  0  0  0  0  0  0  0  0  0
   10.0863   -1.2974   23.0643 C   0  0  0  0  0  0  0  0  0  0  0  0
    9.9738   -0.1133   23.8078 C   0  0  0  0  0  0  0  0  0  0  0  0
   11.0552    0.7583   23.9200 C   0  0  0  0  0  0  0  0  0  0  0  0
   12.2633    0.4578   23.2890 C   0  0  0  0  0  0  0  0  0  0  0  0
   12.4120   -0.7170   22.5355 C   0  0  0  0  0  0  0  0  0  0  0  0
   13.6878   -1.0344   21.8717 C   0  0  0  0  0  0  0  0  0  0  0  0
   13.8233   -2.2111   21.1108 C   0  0  0  0  0  0  0  0  0  0  0  0
   15.0259   -2.5446   20.4685 C   0  0  0  0  0  0  0  0  0  0  0  0
   16.1169   -1.6765   20.5950 C   0  0  0  0  0  0  0  0  0  0  0  0
   17.3846   -1.7724   20.0751 N   0  0  0  0  0  0  0  0  0  0  0  0
   18.0120   -0.6984   20.4966 C   0  0  0  0  0  0  0  0  0  0  0  0
   17.2038    0.0887   21.2676 N   0  0  0  0  0  0  0  0  0  0  0  0
   15.9756   -0.5164   21.3470 C   0  0  0  0  0  0  0  0  0  0  0  0
   14.7882   -0.1616   21.9944 C   0  0  0  0  0  0  0  0  0  0  0  0
   11.3097   -1.5842   22.4326 C   0  0  0  0  0  0  0  0  0  0  0  0
    8.6585   -2.6351   21.5039 N   0  0  0  0  0  0  0  0  0  0  0  0
    8.4234   -1.4423   20.6771 C   0  0  0  0  0  0  0  0  0  0  0  0
    7.5191   -3.5440   21.3539 C   0  0  0  0  0  0  0  0  0  0  0  0
  2  1  1  1
  2  3  1  0
  2 18  1  0
  3  4  2  0
  4  5  1  0
  5  6  2  0
  6  7  1  0
  7  8  1  0
  7 17  2  0
  8  9  2  0
  9 10  1  0
 10 11  2  0
 11 12  1  0
 12 13  2  0
 13 14  1  0
 14 15  1  0
 15 16  2  0
 15 11  1  0
 16  8  1  0
 17  3  1  0
 18 19  1  0
 18 20  1  0
M  END
>  <enum_smi>  (24) 
CC(c1cccc(-c2ccc3nc[nH]c3c2)c1)N(C)C

>  <std_smi>  (24) 
CC(c1cccc(-c2ccc3nc[nH]c3c2)c1)N(C)C

>  <molecule_id>  (24) 
3196722

>  <enum_code>  (24) 
B

>  <codes>  (24) 
MolPort-016-626-929

>  <libraries>  (24) 
molport

>  <PH4_SCORE>  (24) 
-58.5319

>  <o3da_score>  (24) 
70.649559578713649

>  <o3da_score_rel>  (24) 
0.33463854822668243

>  <o3da_align>  (24) 
0.42090256669711207

$$$$
8829603
     RDKit          3D

 20 22  0  0  1  0  0  0  0  0999 V2000
    8.9158   -3.0925   24.0691 C   0  0  0  0  0  0  0  0  0  0  0  0
    8.8979   -2.0420   22.9426 C   0  0  1  0  0  0  0  0  0  0  0  0
   10.2588   -1.3446   22.9440 C   0  0  0  0  0  0  0  0  0  0  0  0
   10.4778   -0.1793   23.6935 C   0  0  0  0  0  0  0  0  0  0  0  0
   11.7203    0.4510   23.6764 C   0  0  0  0  0  0  0  0  0  0  0  0
   12.7603   -0.0752   22.9085 C   0  0  0  0  0  0  0  0  0  0  0  0
   12.5773   -1.2384   22.1450 C   0  0  0  0  0  0  0  0  0  0  0  0
   13.6758   -1.7941   21.3365 C   0  0  0  0  0  0  0  0  0  0  0  0
   14.9376   -1.1703   21.3220 C   0  0  0  0  0  0  0  0  0  0  0  0
   16.0044   -1.6721   20.5599 C   0  0  0  0  0  0  0  0  0  0  0  0
   15.7973   -2.8259   19.7945 C   0  0  0  0  0  0  0  0  0  0  0  0
   16.6634   -3.5065   18.9740 N   0  0  0  0  0  0  0  0  0  0  0  0
   15.9671   -4.5127   18.4973 C   0  0  0  0  0  0  0  0  0  0  0  0
   14.6868   -4.5121   18.9746 N   0  0  0  0  0  0  0  0  0  0  0  0
   14.5492   -3.4368   19.8145 C   0  0  0  0  0  0  0  0  0  0  0  0
   13.4722   -2.9574   20.5664 C   0  0  0  0  0  0  0  0  0  0  0  0
   11.3163   -1.8604   22.1737 C   0  0  0  0  0  0  0  0  0  0  0  0
    8.5604   -2.6083   21.6092 N   0  0  0  0  0  0  0  0  0  0  0  0
    8.5529   -1.5590   20.5794 C   0  0  0  0  0  0  0  0  0  0  0  0
    7.2623   -3.2876   21.5989 C   0  0  0  0  0  0  0  0  0  0  0  0
  2  1  1  1
  2  3  1  0
  2 18  1  0
  3  4  2  0
  4  5  1  0
  5  6  2  0
  6  7  1  0
  7  8  1  0
  7 17  2  0
  8  9  2  0
  9 10  1  0
 10 11  2  0
 11 12  1  0
 12 13  2  0
 13 14  1  0
 14 15  1  0
 15 16  2  0
 15 11  1  0
 16  8  1  0
 17  3  1  0
 18 19  1  0
 18 20  1  0
M  END
>  <enum_smi>  (25) 
CC(c1cccc(-c2ccc3nc[nH]c3c2)c1)N(C)C

>  <std_smi>  (25) 
CC(c1cccc(-c2ccc3nc[nH]c3c2)c1)N(C)C

>  <molecule_id>  (25) 
3196722

>  <enum_code>  (25) 
B

>  <codes>  (25) 
MolPort-016-626-929

>  <libraries>  (25) 
molport

>  <PH4_SCORE>  (25) 
-57.9488

>  <o3da_score>  (25) 
81.943169763951602

>  <o3da_score_rel>  (25) 
0.3881318373450024

>  <o3da_align>  (25) 
0.14584036740511844

$$$$
8829741
     RDKit          3D

 18 20  0  0  0  0  0  0  0  0999 V2000
    5.3873    0.4931   20.3299 C   0  0  0  0  0  0  0  0  0  0  0  0
    5.4022    0.4391   21.7034 C   0  0  0  0  0  0  0  0  0  0  0  0
    6.5851   -0.0576   22.1476 O   0  0  0  0  0  0  0  0  0  0  0  0
    7.3475   -0.3208   21.0460 C   0  0  0  0  0  0  0  0  0  0  0  0
    8.6992   -0.8834   21.2998 C   0  0  0  0  0  0  0  0  0  0  0  0
    9.3649    0.0202   22.1834 O   0  0  0  0  0  0  0  0  0  0  0  0
   10.6530   -0.2487   22.5543 C   0  0  0  0  0  0  0  0  0  0  0  0
   11.3575   -1.3716   22.0920 C   0  0  0  0  0  0  0  0  0  0  0  0
   12.6922   -1.5788   22.4432 C   0  0  0  0  0  0  0  0  0  0  0  0
   13.3439   -0.6666   23.2608 C   0  0  0  0  0  0  0  0  0  0  0  0
   12.6596    0.4511   23.7392 C   0  0  0  0  0  0  0  0  0  0  0  0
   11.3078    0.6697   23.4049 C   0  0  0  0  0  0  0  0  0  0  0  0
   10.6531    1.8192   23.9442 N   0  0  0  0  0  0  0  0  0  0  0  0
    9.3324    2.1920   23.8701 C   0  0  0  0  0  0  0  0  0  0  0  0
    9.1294    3.3266   24.5023 N   0  0  0  0  0  0  0  0  0  0  0  0
   10.3260    3.7243   25.0302 N   0  0  0  0  0  0  0  0  0  0  0  0
   11.2201    2.8215   24.6995 C   0  0  0  0  0  0  0  0  0  0  0  0
    6.6423   -0.0024   19.9023 C   0  0  0  0  0  0  0  0  0  0  0  0
  1  2  2  0
  2  3  1  0
  3  4  1  0
  4  5  1  0
  4 18  2  0
  5  6  1  0
  6  7  1  0
  7  8  2  0
  8  9  1  0
  9 10  2  0
 10 11  1  0
 11 12  2  0
 12 13  1  0
 12  7  1  0
 13 14  1  0
 14 15  2  0
 15 16  1  0
 16 17  2  0
 17 13  1  0
 18  1  1  0
M  END
>  <enum_smi>  (26) 
c1coc(COc2ccccc2-n2cnnc2)c1

>  <std_smi>  (26) 
c1coc(COc2ccccc2-n2cnnc2)c1

>  <molecule_id>  (26) 
3197509

>  <enum_code>  (26) 
B

>  <codes>  (26) 
MolPort-016-627-927

>  <libraries>  (26) 
molport

>  <PH4_SCORE>  (26) 
-67.7546

>  <o3da_score>  (26) 
54.820577015764485

>  <o3da_score_rel>  (26) 
0.25966302429763116

>  <o3da_align>  (26) 
0.61065200208451487

$$$$
8829741
     RDKit          3D

 18 20  0  0  0  0  0  0  0  0999 V2000
    7.0761   -1.0013   25.8037 C   0  0  0  0  0  0  0  0  0  0  0  0
    6.1478   -1.6438   25.0195 C   0  0  0  0  0  0  0  0  0  0  0  0
    6.6782   -1.9496   23.8076 O   0  0  0  0  0  0  0  0  0  0  0  0
    7.9693   -1.5051   23.8122 C   0  0  0  0  0  0  0  0  0  0  0  0
    8.7486   -1.7329   22.5677 C   0  0  0  0  0  0  0  0  0  0  0  0
    7.9485   -1.2561   21.4847 O   0  0  0  0  0  0  0  0  0  0  0  0
    8.4382   -1.3502   20.2117 C   0  0  0  0  0  0  0  0  0  0  0  0
    9.5709   -2.1137   19.8885 C   0  0  0  0  0  0  0  0  0  0  0  0
   10.0034   -2.2361   18.5671 C   0  0  0  0  0  0  0  0  0  0  0  0
    9.3104   -1.5982   17.5486 C   0  0  0  0  0  0  0  0  0  0  0  0
    8.1876   -0.8264   17.8488 C   0  0  0  0  0  0  0  0  0  0  0  0
    7.7437   -0.6816   19.1789 C   0  0  0  0  0  0  0  0  0  0  0  0
    6.6022    0.1406   19.4273 N   0  0  0  0  0  0  0  0  0  0  0  0
    6.0185    0.4938   20.6203 C   0  0  0  0  0  0  0  0  0  0  0  0
    4.9772    1.2711   20.4206 N   0  0  0  0  0  0  0  0  0  0  0  0
    4.8599    1.4650   19.0724 N   0  0  0  0  0  0  0  0  0  0  0  0
    5.8309    0.7967   18.4940 C   0  0  0  0  0  0  0  0  0  0  0  0
    8.2531   -0.9061   25.0235 C   0  0  0  0  0  0  0  0  0  0  0  0
  1  2  2  0
  2  3  1  0
  3  4  1  0
  4  5  1  0
  4 18  2  0
  5  6  1  0
  6  7  1  0
  7  8  2  0
  8  9  1  0
  9 10  2  0
 10 11  1  0
 11 12  2  0
 12 13  1  0
 12  7  1  0
 13 14  1  0
 14 15  2  0
 15 16  1  0
 16 17  2  0
 17 13  1  0
 18  1  1  0
M  END
>  <enum_smi>  (27) 
c1coc(COc2ccccc2-n2cnnc2)c1

>  <std_smi>  (27) 
c1coc(COc2ccccc2-n2cnnc2)c1

>  <molecule_id>  (27) 
3197509

>  <enum_code>  (27) 
B

>  <codes>  (27) 
MolPort-016-627-927

>  <libraries>  (27) 
molport

>  <PH4_SCORE>  (27) 
-64.9805

>  <o3da_score>  (27) 
58.338465555436066

>  <o3da_score_rel>  (27) 
0.27632584740309424

>  <o3da_align>  (27) 
0.58420065579203584

$$$$
8829741
     RDKit          3D

 18 20  0  0  0  0  0  0  0  0999 V2000
   11.8789    0.0790   23.4475 C   0  0  0  0  0  0  0  0  0  0  0  0
   12.2043   -0.7229   22.3794 C   0  0  0  0  0  0  0  0  0  0  0  0
   11.2007   -1.5995   22.1188 O   0  0  0  0  0  0  0  0  0  0  0  0
   10.2104   -1.3551   23.0266 C   0  0  0  0  0  0  0  0  0  0  0  0
    9.0011   -2.2132   22.9287 C   0  0  0  0  0  0  0  0  0  0  0  0
    8.4642   -2.0247   21.6185 O   0  0  0  0  0  0  0  0  0  0  0  0
    7.9492   -0.8025   21.2862 C   0  0  0  0  0  0  0  0  0  0  0  0
    7.7606    0.2228   22.2264 C   0  0  0  0  0  0  0  0  0  0  0  0
    7.2911    1.4783   21.8377 C   0  0  0  0  0  0  0  0  0  0  0  0
    7.0037    1.7289   20.5037 C   0  0  0  0  0  0  0  0  0  0  0  0
    7.1749    0.7210   19.5544 C   0  0  0  0  0  0  0  0  0  0  0  0
    7.6363   -0.5567   19.9308 C   0  0  0  0  0  0  0  0  0  0  0  0
    7.7691   -1.5555   18.9179 N   0  0  0  0  0  0  0  0  0  0  0  0
    8.0622   -2.8927   19.0378 C   0  0  0  0  0  0  0  0  0  0  0  0
    8.0929   -3.4733   17.8587 N   0  0  0  0  0  0  0  0  0  0  0  0
    7.7989   -2.5215   16.9225 N   0  0  0  0  0  0  0  0  0  0  0  0
    7.6024   -1.3910   17.5608 C   0  0  0  0  0  0  0  0  0  0  0  0
   10.5921   -0.3312   23.8707 C   0  0  0  0  0  0  0  0  0  0  0  0
  1  2  2  0
  2  3  1  0
  3  4  1  0
  4  5  1  0
  4 18  2  0
  5  6  1  0
  6  7  1  0
  7  8  2  0
  8  9  1  0
  9 10  2  0
 10 11  1  0
 11 12  2  0
 12 13  1  0
 12  7  1  0
 13 14  1  0
 14 15  2  0
 15 16  1  0
 16 17  2  0
 17 13  1  0
 18  1  1  0
M  END
>  <enum_smi>  (28) 
c1coc(COc2ccccc2-n2cnnc2)c1

>  <std_smi>  (28) 
c1coc(COc2ccccc2-n2cnnc2)c1

>  <molecule_id>  (28) 
3197509

>  <enum_code>  (28) 
B

>  <codes>  (28) 
MolPort-016-627-927

>  <libraries>  (28) 
molport

>  <PH4_SCORE>  (28) 
-63.6744

>  <o3da_score>  (28) 
69.700798602780836

>  <o3da_score_rel>  (28) 
0.33014464907864094

>  <o3da_align>  (28) 
0.43558600927178409

$$$$
8829741
     RDKit          3D

 18 20  0  0  0  0  0  0  0  0999 V2000
    6.9751    1.3784   21.2229 C   0  0  0  0  0  0  0  0  0  0  0  0
    7.8721    0.5936   20.5381 C   0  0  0  0  0  0  0  0  0  0  0  0
    8.2543   -0.4657   21.2966 O   0  0  0  0  0  0  0  0  0  0  0  0
    7.5887   -0.3675   22.4849 C   0  0  0  0  0  0  0  0  0  0  0  0
    7.8627   -1.4339   23.4829 C   0  0  0  0  0  0  0  0  0  0  0  0
    9.0510   -2.1032   23.0585 O   0  0  0  0  0  0  0  0  0  0  0  0
   10.2184   -1.3946   22.9895 C   0  0  0  0  0  0  0  0  0  0  0  0
   10.3866   -0.1467   23.6100 C   0  0  0  0  0  0  0  0  0  0  0  0
   11.6135    0.5172   23.5701 C   0  0  0  0  0  0  0  0  0  0  0  0
   12.6912   -0.0557   22.9104 C   0  0  0  0  0  0  0  0  0  0  0  0
   12.5429   -1.2907   22.2787 C   0  0  0  0  0  0  0  0  0  0  0  0
   11.3078   -1.9698   22.2982 C   0  0  0  0  0  0  0  0  0  0  0  0
   11.2101   -3.2198   21.6135 N   0  0  0  0  0  0  0  0  0  0  0  0
   10.1244   -4.0454   21.4453 C   0  0  0  0  0  0  0  0  0  0  0  0
   10.4495   -5.1111   20.7476 N   0  0  0  0  0  0  0  0  0  0  0  0
   11.7722   -5.0019   20.4200 N   0  0  0  0  0  0  0  0  0  0  0  0
   12.2114   -3.8754   20.9320 C   0  0  0  0  0  0  0  0  0  0  0  0
    6.7939    0.7615   22.4838 C   0  0  0  0  0  0  0  0  0  0  0  0
  1  2  2  0
  2  3  1  0
  3  4  1  0
  4  5  1  0
  4 18  2  0
  5  6  1  0
  6  7  1  0
  7  8  2  0
  8  9  1  0
  9 10  2  0
 10 11  1  0
 11 12  2  0
 12 13  1  0
 12  7  1  0
 13 14  1  0
 14 15  2  0
 15 16  1  0
 16 17  2  0
 17 13  1  0
 18  1  1  0
M  END
>  <enum_smi>  (29) 
c1coc(COc2ccccc2-n2cnnc2)c1

>  <std_smi>  (29) 
c1coc(COc2ccccc2-n2cnnc2)c1

>  <molecule_id>  (29) 
3197509

>  <enum_code>  (29) 
B

>  <codes>  (29) 
MolPort-016-627-927

>  <libraries>  (29) 
molport

>  <PH4_SCORE>  (29) 
-63.4662

>  <o3da_score>  (29) 
61.76353699426172

>  <o3da_score_rel>  (29) 
0.2925490332332098

>  <o3da_align>  (29) 
0.20072478391696688

$$$$
8829741
     RDKit          3D

 18 20  0  0  0  0  0  0  0  0999 V2000
    9.2287    5.0947   19.2754 C   0  0  0  0  0  0  0  0  0  0  0  0
    8.8159    5.3808   20.5549 C   0  0  0  0  0  0  0  0  0  0  0  0
    9.0832    4.3404   21.3854 O   0  0  0  0  0  0  0  0  0  0  0  0
    9.6837    3.3721   20.6329 C   0  0  0  0  0  0  0  0  0  0  0  0
   10.0634    2.1250   21.3463 C   0  0  0  0  0  0  0  0  0  0  0  0
    9.2907    1.0687   20.7740 O   0  0  0  0  0  0  0  0  0  0  0  0
    9.3518   -0.1745   21.3397 C   0  0  0  0  0  0  0  0  0  0  0  0
   10.1658   -0.4661   22.4455 C   0  0  0  0  0  0  0  0  0  0  0  0
   10.1538   -1.7313   23.0345 C   0  0  0  0  0  0  0  0  0  0  0  0
    9.3276   -2.7243   22.5282 C   0  0  0  0  0  0  0  0  0  0  0  0
    8.5177   -2.4586   21.4236 C   0  0  0  0  0  0  0  0  0  0  0  0
    8.5261   -1.1903   20.8085 C   0  0  0  0  0  0  0  0  0  0  0  0
    7.6932   -0.9848   19.6662 N   0  0  0  0  0  0  0  0  0  0  0  0
    7.5918    0.1083   18.8396 C   0  0  0  0  0  0  0  0  0  0  0  0
    6.7022   -0.0997   17.8943 N   0  0  0  0  0  0  0  0  0  0  0  0
    6.2026   -1.3602   18.0684 N   0  0  0  0  0  0  0  0  0  0  0  0
    6.8007   -1.8780   19.1163 C   0  0  0  0  0  0  0  0  0  0  0  0
    9.7856    3.7944   19.3222 C   0  0  0  0  0  0  0  0  0  0  0  0
  1  2  2  0
  2  3  1  0
  3  4  1  0
  4  5  1  0
  4 18  2  0
  5  6  1  0
  6  7  1  0
  7  8  2  0
  8  9  1  0
  9 10  2  0
 10 11  1  0
 11 12  2  0
 12 13  1  0
 12  7  1  0
 13 14  1  0
 14 15  2  0
 15 16  1  0
 16 17  2  0
 17 13  1  0
 18  1  1  0
M  END
>  <enum_smi>  (30) 
c1coc(COc2ccccc2-n2cnnc2)c1

>  <std_smi>  (30) 
c1coc(COc2ccccc2-n2cnnc2)c1

>  <molecule_id>  (30) 
3197509

>  <enum_code>  (30) 
B

>  <codes>  (30) 
MolPort-016-627-927

>  <libraries>  (30) 
molport

>  <PH4_SCORE>  (30) 
-63.4132

>  <o3da_score>  (30) 
58.760867536502154

>  <o3da_score_rel>  (30) 
0.27832659569586377

>  <o3da_align>  (30) 
0.38883000259000572

$$$$
8830120
     RDKit          3D

 18 18  0  0  1  0  0  0  0  0999 V2000
   11.7957    1.0900   21.6759 C   0  0  0  0  0  0  0  0  0  0  0  0
   11.3337   -0.1868   22.3950 C   0  0  0  0  0  0  0  0  0  0  0  0
   12.5057   -1.1735   22.4393 C   0  0  0  0  0  0  0  0  0  0  0  0
   10.8473    0.1918   23.7981 C   0  0  0  0  0  0  0  0  0  0  0  0
   10.2471   -0.6937   21.5778 O   0  0  0  0  0  0  0  0  0  0  0  0
    9.1315    0.0451   21.3557 C   0  0  0  0  0  0  0  0  0  0  0  0
    8.9435    1.1674   21.8056 O   0  0  0  0  0  0  0  0  0  0  0  0
    8.2133   -0.6153   20.5430 N   0  0  0  0  0  0  0  0  0  0  0  0
    8.3292   -2.0494   20.2796 C   0  0  0  0  0  0  0  0  0  0  0  0
    7.6798   -2.4413   18.9567 C   0  0  0  0  0  0  0  0  0  0  0  0
    6.2567   -1.8949   18.8406 C   0  0  0  0  0  0  0  0  0  0  0  0
    6.2123   -0.3764   19.0836 C   0  0  1  0  0  0  0  0  0  0  0  0
    6.9698    0.2595   18.0252 O   0  0  0  0  0  0  0  0  0  0  0  0
    4.7542    0.1186   19.1078 C   0  0  0  0  0  0  0  0  0  0  0  0
    4.1331   -0.1556   17.9340 F   0  0  0  0  0  0  0  0  0  0  0  0
    4.6766    1.4553   19.2950 F   0  0  0  0  0  0  0  0  0  0  0  0
    4.0363   -0.4781   20.0855 F   0  0  0  0  0  0  0  0  0  0  0  0
    6.8689   -0.0324   20.4298 C   0  0  0  0  0  0  0  0  0  0  0  0
  1  2  1  0
  2  3  1  0
  2  4  1  0
  2  5  1  0
  5  6  1  0
  6  7  2  0
  6  8  1  0
  8  9  1  0
  9 10  1  0
 10 11  1  0
 11 12  1  0
 12 13  1  6
 12 14  1  0
 12 18  1  0
 14 15  1  0
 14 16  1  0
 14 17  1  0
 18  8  1  0
M  END
>  <enum_smi>  (31) 
CC(C)(C)OC(=O)N1CCCC(O)(C(F)(F)F)C1

>  <std_smi>  (31) 
CC(C)(C)OC(=O)N1CCCC(O)(C(F)(F)F)C1

>  <molecule_id>  (31) 
3201494

>  <enum_code>  (31) 
B

>  <codes>  (31) 
MolPort-016-637-494

>  <libraries>  (31) 
molport

>  <PH4_SCORE>  (31) 
-53.5783

>  <o3da_score>  (31) 
74.058874516201655

>  <o3da_score_rel>  (31) 
0.35078710184728096

>  <o3da_align>  (31) 
0.38295979716837081

$$$$
8830120
     RDKit          3D

 18 18  0  0  1  0  0  0  0  0999 V2000
   11.8025    1.0458   21.6369 C   0  0  0  0  0  0  0  0  0  0  0  0
   11.3063   -0.2093   22.3713 C   0  0  0  0  0  0  0  0  0  0  0  0
   12.4499   -1.2281   22.4243 C   0  0  0  0  0  0  0  0  0  0  0  0
   10.8340    0.1986   23.7711 C   0  0  0  0  0  0  0  0  0  0  0  0
   10.2040   -0.6943   21.5621 O   0  0  0  0  0  0  0  0  0  0  0  0
    9.1078    0.0722   21.3363 C   0  0  0  0  0  0  0  0  0  0  0  0
    8.9523    1.2039   21.7745 O   0  0  0  0  0  0  0  0  0  0  0  0
    8.1682   -0.5719   20.5352 N   0  0  0  0  0  0  0  0  0  0  0  0
    8.2440   -2.0116   20.2873 C   0  0  0  0  0  0  0  0  0  0  0  0
    7.5781   -2.4004   18.9716 C   0  0  0  0  0  0  0  0  0  0  0  0
    6.1700   -1.8167   18.8554 C   0  0  0  0  0  0  0  0  0  0  0  0
    6.1679   -0.2950   19.0816 C   0  0  1  0  0  0  0  0  0  0  0  0
    6.9375    0.3085   18.0130 O   0  0  0  0  0  0  0  0  0  0  0  0
    4.7239    0.2399   19.1065 C   0  0  0  0  0  0  0  0  0  0  0  0
    4.0925   -0.0241   17.9358 F   0  0  0  0  0  0  0  0  0  0  0  0
    4.6832    1.5793   19.2860 F   0  0  0  0  0  0  0  0  0  0  0  0
    3.9925   -0.3314   20.0894 F   0  0  0  0  0  0  0  0  0  0  0  0
    6.8397    0.0459   20.4211 C   0  0  0  0  0  0  0  0  0  0  0  0
  1  2  1  0
  2  3  1  0
  2  4  1  0
  2  5  1  0
  5  6  1  0
  6  7  2  0
  6  8  1  0
  8  9  1  0
  9 10  1  0
 10 11  1  0
 11 12  1  0
 12 13  1  6
 12 14  1  0
 12 18  1  0
 14 15  1  0
 14 16  1  0
 14 17  1  0
 18  8  1  0
M  END
>  <enum_smi>  (32) 
CC(C)(C)OC(=O)N1CCCC(O)(C(F)(F)F)C1

>  <std_smi>  (32) 
CC(C)(C)OC(=O)N1CCCC(O)(C(F)(F)F)C1

>  <molecule_id>  (32) 
3201494

>  <enum_code>  (32) 
B

>  <codes>  (32) 
MolPort-016-637-494

>  <libraries>  (32) 
molport

>  <PH4_SCORE>  (32) 
-53.4687

>  <o3da_score>  (32) 
67.545313944962061

>  <o3da_score_rel>  (32) 
0.31993498519795216

>  <o3da_align>  (32) 
0.346529863716527

$$$$
8830120
     RDKit          3D

 18 18  0  0  1  0  0  0  0  0999 V2000
   12.3124   -0.8815   24.0409 C   0  0  0  0  0  0  0  0  0  0  0  0
   12.5254   -1.5085   22.6544 C   0  0  0  0  0  0  0  0  0  0  0  0
   13.3515   -0.5393   21.8018 C   0  0  0  0  0  0  0  0  0  0  0  0
   13.2268   -2.8596   22.8320 C   0  0  0  0  0  0  0  0  0  0  0  0
   11.1871   -1.6742   22.1188 O   0  0  0  0  0  0  0  0  0  0  0  0
   10.3621   -0.6111   21.9480 C   0  0  0  0  0  0  0  0  0  0  0  0
   10.6589    0.5454   22.2157 O   0  0  0  0  0  0  0  0  0  0  0  0
    9.1270   -0.9797   21.4209 N   0  0  0  0  0  0  0  0  0  0  0  0
    8.6990   -2.3784   21.4011 C   0  0  0  0  0  0  0  0  0  0  0  0
    7.6930   -2.6521   20.2881 C   0  0  0  0  0  0  0  0  0  0  0  0
    6.5437   -1.6442   20.3031 C   0  0  0  0  0  0  0  0  0  0  0  0
    7.0612   -0.1957   20.2769 C   0  0  1  0  0  0  0  0  0  0  0  0
    7.7470    0.0024   19.0162 O   0  0  0  0  0  0  0  0  0  0  0  0
    5.8920    0.7929   20.4428 C   0  0  0  0  0  0  0  0  0  0  0  0
    6.3355    2.0738   20.4050 F   0  0  0  0  0  0  0  0  0  0  0  0
    5.2540    0.6288   21.6234 F   0  0  0  0  0  0  0  0  0  0  0  0
    4.9772    0.6604   19.4563 F   0  0  0  0  0  0  0  0  0  0  0  0
    8.0627    0.0337   21.4198 C   0  0  0  0  0  0  0  0  0  0  0  0
  1  2  1  0
  2  3  1  0
  2  4  1  0
  2  5  1  0
  5  6  1  0
  6  7  2  0
  6  8  1  0
  8  9  1  0
  9 10  1  0
 10 11  1  0
 11 12  1  0
 12 13  1  6
 12 14  1  0
 12 18  1  0
 14 15  1  0
 14 16  1  0
 14 17  1  0
 18  8  1  0
M  END
>  <enum_smi>  (33) 
CC(C)(C)OC(=O)N1CCCC(O)(C(F)(F)F)C1

>  <std_smi>  (33) 
CC(C)(C)OC(=O)N1CCCC(O)(C(F)(F)F)C1

>  <molecule_id>  (33) 
3201494

>  <enum_code>  (33) 
B

>  <codes>  (33) 
MolPort-016-637-494

>  <libraries>  (33) 
molport

>  <PH4_SCORE>  (33) 
-53.0131

>  <o3da_score>  (33) 
69.950302008494475

>  <o3da_score_rel>  (33) 
0.33132644636037206

>  <o3da_align>  (33) 
0.51540319197536799

$$$$
8830120
     RDKit          3D

 18 18  0  0  1  0  0  0  0  0999 V2000
   10.7405    0.1106   23.7328 C   0  0  0  0  0  0  0  0  0  0  0  0
   11.3642   -0.1510   22.3531 C   0  0  0  0  0  0  0  0  0  0  0  0
   11.8884    1.1764   21.7947 C   0  0  0  0  0  0  0  0  0  0  0  0
   12.4802   -1.1894   22.5106 C   0  0  0  0  0  0  0  0  0  0  0  0
   10.2715   -0.6672   21.5501 O   0  0  0  0  0  0  0  0  0  0  0  0
    9.1501    0.0653   21.3356 C   0  0  0  0  0  0  0  0  0  0  0  0
    8.9623    1.1897   21.7803 O   0  0  0  0  0  0  0  0  0  0  0  0
    8.2257   -0.6043   20.5378 N   0  0  0  0  0  0  0  0  0  0  0  0
    8.3449   -2.0397   20.2826 C   0  0  0  0  0  0  0  0  0  0  0  0
    7.6823   -2.4433   18.9697 C   0  0  0  0  0  0  0  0  0  0  0  0
    6.2557   -1.9036   18.8660 C   0  0  0  0  0  0  0  0  0  0  0  0
    6.2074   -0.3839   19.0996 C   0  0  1  0  0  0  0  0  0  0  0  0
    6.9501    0.2484   18.0285 O   0  0  0  0  0  0  0  0  0  0  0  0
    4.7476    0.1051   19.1370 C   0  0  0  0  0  0  0  0  0  0  0  0
    4.6939    1.4473   19.3222 F   0  0  0  0  0  0  0  0  0  0  0  0
    4.0491   -0.4627   20.1458 F   0  0  0  0  0  0  0  0  0  0  0  0
    4.0975   -0.1624   17.9823 F   0  0  0  0  0  0  0  0  0  0  0  0
    6.8776   -0.0280   20.4360 C   0  0  0  0  0  0  0  0  0  0  0  0
  1  2  1  0
  2  3  1  0
  2  4  1  0
  2  5  1  0
  5  6  1  0
  6  7  2  0
  6  8  1  0
  8  9  1  0
  9 10  1  0
 10 11  1  0
 11 12  1  0
 12 13  1  6
 12 14  1  0
 12 18  1  0
 14 15  1  0
 14 16  1  0
 14 17  1  0
 18  8  1  0
M  END
>  <enum_smi>  (34) 
CC(C)(C)OC(=O)N1CCCC(O)(C(F)(F)F)C1

>  <std_smi>  (34) 
CC(C)(C)OC(=O)N1CCCC(O)(C(F)(F)F)C1

>  <molecule_id>  (34) 
3201494

>  <enum_code>  (34) 
B

>  <codes>  (34) 
MolPort-016-637-494

>  <libraries>  (34) 
molport

>  <PH4_SCORE>  (34) 
-52.8493

>  <o3da_score>  (34) 
74.429604502469857

>  <o3da_score_rel>  (34) 
0.35254310068334827

>  <o3da_align>  (34) 
0.36444494732172522

$$$$
8830120
     RDKit          3D

 18 18  0  0  1  0  0  0  0  0999 V2000
   11.6524   -2.0480   23.4252 C   0  0  0  0  0  0  0  0  0  0  0  0
   11.1577   -0.6901   22.9032 C   0  0  0  0  0  0  0  0  0  0  0  0
   10.6540    0.1359   24.0919 C   0  0  0  0  0  0  0  0  0  0  0  0
   12.3125    0.0015   22.1704 C   0  0  0  0  0  0  0  0  0  0  0  0
   10.0766   -1.0201   21.9934 O   0  0  0  0  0  0  0  0  0  0  0  0
    9.3957   -0.0519   21.3310 C   0  0  0  0  0  0  0  0  0  0  0  0
    9.6267    1.1459   21.4267 O   0  0  0  0  0  0  0  0  0  0  0  0
    8.3969   -0.5736   20.5126 N   0  0  0  0  0  0  0  0  0  0  0  0
    7.9504   -1.9597   20.6523 C   0  0  0  0  0  0  0  0  0  0  0  0
    7.3675   -2.5056   19.3532 C   0  0  0  0  0  0  0  0  0  0  0  0
    6.3169   -1.5641   18.7642 C   0  0  0  0  0  0  0  0  0  0  0  0
    6.8649   -0.1359   18.6015 C   0  0  1  0  0  0  0  0  0  0  0  0
    7.9409   -0.1865   17.6328 O   0  0  0  0  0  0  0  0  0  0  0  0
    5.7444    0.8183   18.1484 C   0  0  0  0  0  0  0  0  0  0  0  0
    5.2177    0.4153   16.9656 F   0  0  0  0  0  0  0  0  0  0  0  0
    6.1948    2.0809   17.9725 F   0  0  0  0  0  0  0  0  0  0  0  0
    4.7294    0.8620   19.0402 F   0  0  0  0  0  0  0  0  0  0  0  0
    7.4320    0.3731   19.9361 C   0  0  0  0  0  0  0  0  0  0  0  0
  1  2  1  0
  2  3  1  0
  2  4  1  0
  2  5  1  0
  5  6  1  0
  6  7  2  0
  6  8  1  0
  8  9  1  0
  9 10  1  0
 10 11  1  0
 11 12  1  0
 12 13  1  6
 12 14  1  0
 12 18  1  0
 14 15  1  0
 14 16  1  0
 14 17  1  0
 18  8  1  0
M  END
>  <enum_smi>  (35) 
CC(C)(C)OC(=O)N1CCCC(O)(C(F)(F)F)C1

>  <std_smi>  (35) 
CC(C)(C)OC(=O)N1CCCC(O)(C(F)(F)F)C1

>  <molecule_id>  (35) 
3201494

>  <enum_code>  (35) 
B

>  <codes>  (35) 
MolPort-016-637-494

>  <libraries>  (35) 
molport

>  <PH4_SCORE>  (35) 
-52.8233

>  <o3da_score>  (35) 
85.65719215927372

>  <o3da_score_rel>  (35) 
0.40572366763896567

>  <o3da_align>  (35) 
0.49503472842753865

$$$$
8830147
     RDKit          3D

 19 20  0  0  0  0  0  0  0  0999 V2000
    7.4012   -0.0182   16.3705 C   0  0  0  0  0  0  0  0  0  0  0  0
    6.9061    0.2108   17.7679 C   0  0  0  0  0  0  0  0  0  0  0  0
    5.7933    1.0237   18.0138 C   0  0  0  0  0  0  0  0  0  0  0  0
    5.3444    1.2190   19.3181 C   0  0  0  0  0  0  0  0  0  0  0  0
    6.0048    0.6037   20.3842 C   0  0  0  0  0  0  0  0  0  0  0  0
    7.1278   -0.2034   20.1588 C   0  0  0  0  0  0  0  0  0  0  0  0
    7.7269   -0.8009   21.2833 N   0  0  0  0  0  0  0  0  0  0  0  0
    8.8477   -1.6126   21.3316 C   0  0  0  0  0  0  0  0  0  0  0  0
    9.5673   -1.9272   20.3865 O   0  0  0  0  0  0  0  0  0  0  0  0
    9.1523   -2.1259   22.7444 C   0  0  0  0  0  0  0  0  0  0  0  0
   10.3840   -2.8576   22.7719 O   0  0  0  0  0  0  0  0  0  0  0  0
   11.4306   -2.0441   22.4203 C   0  0  0  0  0  0  0  0  0  0  0  0
   12.3871   -2.5509   21.5360 C   0  0  0  0  0  0  0  0  0  0  0  0
   13.4856   -1.7683   21.1806 C   0  0  0  0  0  0  0  0  0  0  0  0
   13.6397   -0.4914   21.7246 C   0  0  0  0  0  0  0  0  0  0  0  0
   12.6962    0.0058   22.6291 C   0  0  0  0  0  0  0  0  0  0  0  0
   11.5939   -0.7746   22.9850 C   0  0  0  0  0  0  0  0  0  0  0  0
   10.4643   -0.1442   24.1278 Cl  0  0  0  0  0  0  0  0  0  0  0  0
    7.5712   -0.3920   18.8486 C   0  0  0  0  0  0  0  0  0  0  0  0
  1  2  1  0
  2  3  2  0
  3  4  1  0
  4  5  2  0
  5  6  1  0
  6  7  1  0
  6 19  2  0
  7  8  1  0
  8  9  2  0
  8 10  1  0
 10 11  1  0
 11 12  1  0
 12 13  2  0
 13 14  1  0
 14 15  2  0
 15 16  1  0
 16 17  2  0
 17 18  1  0
 17 12  1  0
 19  2  1  0
M  END
>  <enum_smi>  (36) 
Cc1cccc(NC(=O)COc2ccccc2Cl)c1

>  <std_smi>  (36) 
Cc1cccc(NC(=O)COc2ccccc2Cl)c1

>  <molecule_id>  (36) 
3202420

>  <enum_code>  (36) 
B

>  <codes>  (36) 
MolPort-016-804-563

>  <libraries>  (36) 
molport

>  <PH4_SCORE>  (36) 
-58.0411

>  <o3da_score>  (36) 
91.389015085539384

>  <o3da_score_rel>  (36) 
0.43287300748164276

>  <o3da_align>  (36) 
0.38897507164868594

$$$$
8830147
     RDKit          3D

 19 20  0  0  0  0  0  0  0  0999 V2000
    4.3514    2.5514   19.3048 C   0  0  0  0  0  0  0  0  0  0  0  0
    5.3925    1.4885   19.1126 C   0  0  0  0  0  0  0  0  0  0  0  0
    5.8128    1.1154   17.8305 C   0  0  0  0  0  0  0  0  0  0  0  0
    6.7857    0.1309   17.6724 C   0  0  0  0  0  0  0  0  0  0  0  0
    7.3437   -0.4870   18.7941 C   0  0  0  0  0  0  0  0  0  0  0  0
    6.9266   -0.1357   20.0847 C   0  0  0  0  0  0  0  0  0  0  0  0
    7.5489   -0.7920   21.1629 N   0  0  0  0  0  0  0  0  0  0  0  0
    8.5586   -1.7390   21.1268 C   0  0  0  0  0  0  0  0  0  0  0  0
    9.1410   -2.1530   20.1271 O   0  0  0  0  0  0  0  0  0  0  0  0
    8.9277   -2.2709   22.5171 C   0  0  0  0  0  0  0  0  0  0  0  0
    9.9928   -3.2263   22.4367 O   0  0  0  0  0  0  0  0  0  0  0  0
   11.1341   -2.6303   21.9646 C   0  0  0  0  0  0  0  0  0  0  0  0
   11.8799   -3.3133   20.9996 C   0  0  0  0  0  0  0  0  0  0  0  0
   13.0656   -2.7578   20.5192 C   0  0  0  0  0  0  0  0  0  0  0  0
   13.5166   -1.5336   21.0178 C   0  0  0  0  0  0  0  0  0  0  0  0
   12.7837   -0.8626   22.0016 C   0  0  0  0  0  0  0  0  0  0  0  0
   11.5948   -1.4153   22.4829 C   0  0  0  0  0  0  0  0  0  0  0  0
   10.7303   -0.5772   23.7198 Cl  0  0  0  0  0  0  0  0  0  0  0  0
    5.9502    0.8509   20.2333 C   0  0  0  0  0  0  0  0  0  0  0  0
  1  2  1  0
  2  3  2  0
  3  4  1  0
  4  5  2  0
  5  6  1  0
  6  7  1  0
  6 19  2  0
  7  8  1  0
  8  9  2  0
  8 10  1  0
 10 11  1  0
 11 12  1  0
 12 13  2  0
 13 14  1  0
 14 15  2  0
 15 16  1  0
 16 17  2  0
 17 18  1  0
 17 12  1  0
 19  2  1  0
M  END
>  <enum_smi>  (37) 
Cc1cccc(NC(=O)COc2ccccc2Cl)c1

>  <std_smi>  (37) 
Cc1cccc(NC(=O)COc2ccccc2Cl)c1

>  <molecule_id>  (37) 
3202420

>  <enum_code>  (37) 
B

>  <codes>  (37) 
MolPort-016-804-563

>  <libraries>  (37) 
molport

>  <PH4_SCORE>  (37) 
-57.8963

>  <o3da_score>  (37) 
91.017975422367854

>  <o3da_score_rel>  (37) 
0.43111554183063749

>  <o3da_align>  (37) 
0.459962035062837

$$$$
8830147
     RDKit          3D

 19 20  0  0  0  0  0  0  0  0999 V2000
    3.6403    1.4940   19.1120 C   0  0  0  0  0  0  0  0  0  0  0  0
    5.0480    0.9761   19.0890 C   0  0  0  0  0  0  0  0  0  0  0  0
    5.8640    1.1570   17.9659 C   0  0  0  0  0  0  0  0  0  0  0  0
    7.1708    0.6745   17.9660 C   0  0  0  0  0  0  0  0  0  0  0  0
    7.6701    0.0083   19.0878 C   0  0  0  0  0  0  0  0  0  0  0  0
    6.8643   -0.1932   20.2163 C   0  0  0  0  0  0  0  0  0  0  0  0
    7.4459   -0.8583   21.3117 N   0  0  0  0  0  0  0  0  0  0  0  0
    8.7297   -1.3639   21.4284 C   0  0  0  0  0  0  0  0  0  0  0  0
    9.6300   -1.2802   20.5962 O   0  0  0  0  0  0  0  0  0  0  0  0
    8.9685   -2.0838   22.7615 C   0  0  0  0  0  0  0  0  0  0  0  0
   10.2916   -2.6309   22.8213 O   0  0  0  0  0  0  0  0  0  0  0  0
   11.2245   -1.6255   22.8209 C   0  0  0  0  0  0  0  0  0  0  0  0
   11.0303   -0.5499   23.6922 C   0  0  0  0  0  0  0  0  0  0  0  0
   11.9371    0.5097   23.6976 C   0  0  0  0  0  0  0  0  0  0  0  0
   13.0229    0.5053   22.8194 C   0  0  0  0  0  0  0  0  0  0  0  0
   13.2032   -0.5586   21.9300 C   0  0  0  0  0  0  0  0  0  0  0  0
   12.2980   -1.6222   21.9238 C   0  0  0  0  0  0  0  0  0  0  0  0
   12.5312   -2.9047   20.7922 Cl  0  0  0  0  0  0  0  0  0  0  0  0
    5.5555    0.2924   20.2065 C   0  0  0  0  0  0  0  0  0  0  0  0
  1  2  1  0
  2  3  2  0
  3  4  1  0
  4  5  2  0
  5  6  1  0
  6  7  1  0
  6 19  2  0
  7  8  1  0
  8  9  2  0
  8 10  1  0
 10 11  1  0
 11 12  1  0
 12 13  2  0
 13 14  1  0
 14 15  2  0
 15 16  1  0
 16 17  2  0
 17 18  1  0
 17 12  1  0
 19  2  1  0
M  END
>  <enum_smi>  (38) 
Cc1cccc(NC(=O)COc2ccccc2Cl)c1

>  <std_smi>  (38) 
Cc1cccc(NC(=O)COc2ccccc2Cl)c1

>  <molecule_id>  (38) 
3202420

>  <enum_code>  (38) 
B

>  <codes>  (38) 
MolPort-016-804-563

>  <libraries>  (38) 
molport

>  <PH4_SCORE>  (38) 
-55.8085

>  <o3da_score>  (38) 
88.352329545664702

>  <o3da_score_rel>  (38) 
0.41848944944470351

>  <o3da_align>  (38) 
0.48650812533434828

$$$$
8830147
     RDKit          3D

 19 20  0  0  0  0  0  0  0  0999 V2000
    7.6914    1.6290   16.7355 C   0  0  0  0  0  0  0  0  0  0  0  0
    6.8321    0.9052   17.7297 C   0  0  0  0  0  0  0  0  0  0  0  0
    5.4395    1.0480   17.7170 C   0  0  0  0  0  0  0  0  0  0  0  0
    4.6578    0.3625   18.6441 C   0  0  0  0  0  0  0  0  0  0  0  0
    5.2625   -0.4693   19.5894 C   0  0  0  0  0  0  0  0  0  0  0  0
    6.6557   -0.6150   19.6255 C   0  0  0  0  0  0  0  0  0  0  0  0
    7.1867   -1.4838   20.5969 N   0  0  0  0  0  0  0  0  0  0  0  0
    8.5161   -1.7307   20.8958 C   0  0  0  0  0  0  0  0  0  0  0  0
    9.4953   -1.1887   20.3886 O   0  0  0  0  0  0  0  0  0  0  0  0
    8.6951   -2.7998   21.9807 C   0  0  0  0  0  0  0  0  0  0  0  0
    9.0983   -2.2102   23.2230 O   0  0  0  0  0  0  0  0  0  0  0  0
   10.2837   -1.5378   23.0699 C   0  0  0  0  0  0  0  0  0  0  0  0
   10.3599   -0.2256   23.5453 C   0  0  0  0  0  0  0  0  0  0  0  0
   11.5361    0.5048   23.3777 C   0  0  0  0  0  0  0  0  0  0  0  0
   12.6259   -0.0665   22.7172 C   0  0  0  0  0  0  0  0  0  0  0  0
   12.5410   -1.3702   22.2190 C   0  0  0  0  0  0  0  0  0  0  0  0
   11.3653   -2.1050   22.3874 C   0  0  0  0  0  0  0  0  0  0  0  0
   11.2818   -3.7001   21.7331 Cl  0  0  0  0  0  0  0  0  0  0  0  0
    7.4310    0.0771   18.6935 C   0  0  0  0  0  0  0  0  0  0  0  0
  1  2  1  0
  2  3  2  0
  3  4  1  0
  4  5  2  0
  5  6  1  0
  6  7  1  0
  6 19  2  0
  7  8  1  0
  8  9  2  0
  8 10  1  0
 10 11  1  0
 11 12  1  0
 12 13  2  0
 13 14  1  0
 14 15  2  0
 15 16  1  0
 16 17  2  0
 17 18  1  0
 17 12  1  0
 19  2  1  0
M  END
>  <enum_smi>  (39) 
Cc1cccc(NC(=O)COc2ccccc2Cl)c1

>  <std_smi>  (39) 
Cc1cccc(NC(=O)COc2ccccc2Cl)c1

>  <molecule_id>  (39) 
3202420

>  <enum_code>  (39) 
B

>  <codes>  (39) 
MolPort-016-804-563

>  <libraries>  (39) 
molport

>  <PH4_SCORE>  (39) 
-55.7398

>  <o3da_score>  (39) 
83.297808169411695

>  <o3da_score_rel>  (39) 
0.39454821463140594

>  <o3da_align>  (39) 
0.42341224636339297

$$$$
8830147
     RDKit          3D

 19 20  0  0  0  0  0  0  0  0999 V2000
    7.2876    0.4614   16.3706 C   0  0  0  0  0  0  0  0  0  0  0  0
    6.7560    0.3866   17.7713 C   0  0  0  0  0  0  0  0  0  0  0  0
    5.3825    0.4787   18.0263 C   0  0  0  0  0  0  0  0  0  0  0  0
    4.9072    0.4003   19.3335 C   0  0  0  0  0  0  0  0  0  0  0  0
    5.8011    0.2299   20.3934 C   0  0  0  0  0  0  0  0  0  0  0  0
    7.1801    0.1484   20.1587 C   0  0  0  0  0  0  0  0  0  0  0  0
    8.0130   -0.0399   21.2774 N   0  0  0  0  0  0  0  0  0  0  0  0
    9.3928   -0.1496   21.3139 C   0  0  0  0  0  0  0  0  0  0  0  0
   10.1622   -0.0529   20.3607 O   0  0  0  0  0  0  0  0  0  0  0  0
    9.9331   -0.4163   22.7243 C   0  0  0  0  0  0  0  0  0  0  0  0
    9.7371   -1.7852   23.1003 O   0  0  0  0  0  0  0  0  0  0  0  0
   10.4052   -2.6173   22.2390 C   0  0  0  0  0  0  0  0  0  0  0  0
   11.7476   -2.3389   21.9667 C   0  0  0  0  0  0  0  0  0  0  0  0
   12.4532   -3.1401   21.0692 C   0  0  0  0  0  0  0  0  0  0  0  0
   11.8131   -4.2032   20.4285 C   0  0  0  0  0  0  0  0  0  0  0  0
   10.4633   -4.4662   20.6815 C   0  0  0  0  0  0  0  0  0  0  0  0
    9.7547   -3.6670   21.5816 C   0  0  0  0  0  0  0  0  0  0  0  0
    8.0818   -3.9987   21.8480 Cl  0  0  0  0  0  0  0  0  0  0  0  0
    7.6473    0.2293   18.8457 C   0  0  0  0  0  0  0  0  0  0  0  0
  1  2  1  0
  2  3  2  0
  3  4  1  0
  4  5  2  0
  5  6  1  0
  6  7  1  0
  6 19  2  0
  7  8  1  0
  8  9  2  0
  8 10  1  0
 10 11  1  0
 11 12  1  0
 12 13  2  0
 13 14  1  0
 14 15  2  0
 15 16  1  0
 16 17  2  0
 17 18  1  0
 17 12  1  0
 19  2  1  0
M  END
>  <enum_smi>  (40) 
Cc1cccc(NC(=O)COc2ccccc2Cl)c1

>  <std_smi>  (40) 
Cc1cccc(NC(=O)COc2ccccc2Cl)c1

>  <molecule_id>  (40) 
3202420

>  <enum_code>  (40) 
B

>  <codes>  (40) 
MolPort-016-804-563

>  <libraries>  (40) 
molport

>  <PH4_SCORE>  (40) 
-54.7113

>  <o3da_score>  (40) 
77.544832457989742

>  <o3da_score_rel>  (40) 
0.36729868255316706

>  <o3da_align>  (40) 
0.50870103446487391

$$$$
8830151
     RDKit          3D

 18 19  0  0  0  0  0  0  0  0999 V2000
    5.4916    0.7392   17.5826 C   0  0  0  0  0  0  0  0  0  0  0  0
    6.3755   -0.4570   17.2849 C   0  0  0  0  0  0  0  0  0  0  0  0
    6.9772   -0.9408   18.4993 O   0  0  0  0  0  0  0  0  0  0  0  0
    7.7593   -0.0488   19.1616 C   0  0  0  0  0  0  0  0  0  0  0  0
    7.9811    1.0994   18.8154 O   0  0  0  0  0  0  0  0  0  0  0  0
    8.3281   -0.6562   20.3856 C   0  0  0  0  0  0  0  0  0  0  0  0
    7.9785   -1.9684   20.6544 C   0  0  0  0  0  0  0  0  0  0  0  0
    8.4113   -2.6685   21.7309 N   0  0  0  0  0  0  0  0  0  0  0  0
    9.2372   -2.0653   22.6109 C   0  0  0  0  0  0  0  0  0  0  0  0
    9.7068   -2.7510   23.7343 C   0  0  0  0  0  0  0  0  0  0  0  0
    9.3319   -4.0247   23.9402 F   0  0  0  0  0  0  0  0  0  0  0  0
   10.5607   -2.1730   24.6720 C   0  0  0  0  0  0  0  0  0  0  0  0
   10.9675   -0.8620   24.4917 C   0  0  0  0  0  0  0  0  0  0  0  0
   12.1242   -0.0522   25.7457 Br  0  0  0  0  0  0  0  0  0  0  0  0
   10.5241   -0.1412   23.3861 C   0  0  0  0  0  0  0  0  0  0  0  0
    9.6572   -0.7300   22.4353 C   0  0  0  0  0  0  0  0  0  0  0  0
    9.1834   -0.0345   21.2990 C   0  0  0  0  0  0  0  0  0  0  0  0
    9.6060    1.2665   21.1500 O   0  0  0  0  0  0  0  0  0  0  0  0
  1  2  1  0
  2  3  1  0
  3  4  1  0
  4  5  2  0
  4  6  1  0
  6  7  2  0
  7  8  1  0
  8  9  2  0
  9 10  1  0
 10 11  1  0
 10 12  2  0
 12 13  1  0
 13 14  1  0
 13 15  2  0
 15 16  1  0
 16 17  2  0
 16  9  1  0
 17 18  1  0
 17  6  1  0
M  END
>  <enum_smi>  (41) 
CCOC(=O)c1cnc2c(F)cc(Br)cc2c1O

>  <std_smi>  (41) 
CCOC(=O)c1cnc2c(F)cc(Br)cc2c1O

>  <molecule_id>  (41) 
3202683

>  <enum_code>  (41) 
B

>  <codes>  (41) 
MolPort-016-891-170

>  <libraries>  (41) 
molport

>  <PH4_SCORE>  (41) 
-66.1554

>  <o3da_score>  (41) 
78.314457271528241

>  <o3da_score_rel>  (41) 
0.37094408574913196

>  <o3da_align>  (41) 
0.39494622858477724

$$$$
8830151
     RDKit          3D

 18 19  0  0  0  0  0  0  0  0999 V2000
   10.8005    1.5880   25.9199 C   0  0  0  0  0  0  0  0  0  0  0  0
   11.5572    1.6722   24.6079 C   0  0  0  0  0  0  0  0  0  0  0  0
   10.7753    1.0909   23.5489 O   0  0  0  0  0  0  0  0  0  0  0  0
   10.4656   -0.2230   23.7023 C   0  0  0  0  0  0  0  0  0  0  0  0
   10.7875   -0.9258   24.6457 O   0  0  0  0  0  0  0  0  0  0  0  0
    9.6715   -0.7132   22.5535 C   0  0  0  0  0  0  0  0  0  0  0  0
    9.2506   -2.0311   22.5997 C   0  0  0  0  0  0  0  0  0  0  0  0
    8.5180   -2.6329   21.6315 N   0  0  0  0  0  0  0  0  0  0  0  0
    8.1657   -1.9183   20.5425 C   0  0  0  0  0  0  0  0  0  0  0  0
    7.4107   -2.5003   19.5207 C   0  0  0  0  0  0  0  0  0  0  0  0
    7.0315   -3.7853   19.6240 F   0  0  0  0  0  0  0  0  0  0  0  0
    7.0220   -1.8056   18.3768 C   0  0  0  0  0  0  0  0  0  0  0  0
    7.3951   -0.4796   18.2369 C   0  0  0  0  0  0  0  0  0  0  0  0
    6.8830    0.4872   16.6978 Br  0  0  0  0  0  0  0  0  0  0  0  0
    8.1477    0.1403   19.2308 C   0  0  0  0  0  0  0  0  0  0  0  0
    8.5412   -0.5670   20.3915 C   0  0  0  0  0  0  0  0  0  0  0  0
    9.3050    0.0239   21.4244 C   0  0  0  0  0  0  0  0  0  0  0  0
    9.6599    1.3423   21.2538 O   0  0  0  0  0  0  0  0  0  0  0  0
  1  2  1  0
  2  3  1  0
  3  4  1  0
  4  5  2  0
  4  6  1  0
  6  7  2  0
  7  8  1  0
  8  9  2  0
  9 10  1  0
 10 11  1  0
 10 12  2  0
 12 13  1  0
 13 14  1  0
 13 15  2  0
 15 16  1  0
 16 17  2  0
 16  9  1  0
 17 18  1  0
 17  6  1  0
M  END
>  <enum_smi>  (42) 
CCOC(=O)c1cnc2c(F)cc(Br)cc2c1O

>  <std_smi>  (42) 
CCOC(=O)c1cnc2c(F)cc(Br)cc2c1O

>  <molecule_id>  (42) 
3202683

>  <enum_code>  (42) 
B

>  <codes>  (42) 
MolPort-016-891-170

>  <libraries>  (42) 
molport

>  <PH4_SCORE>  (42) 
-66.148

>  <o3da_score>  (42) 
77.780229330371412

>  <o3da_score_rel>  (42) 
0.36841366286020122

>  <o3da_align>  (42) 
0.40189362912192761

$$$$
8830151
     RDKit          3D

 18 19  0  0  0  0  0  0  0  0999 V2000
    5.7487   -1.7397   16.5071 C   0  0  0  0  0  0  0  0  0  0  0  0
    6.5385   -0.6155   17.1501 C   0  0  0  0  0  0  0  0  0  0  0  0
    7.1279   -1.0683   18.3823 O   0  0  0  0  0  0  0  0  0  0  0  0
    7.8347   -0.1349   19.0717 C   0  0  0  0  0  0  0  0  0  0  0  0
    8.0258    1.0173   18.7203 O   0  0  0  0  0  0  0  0  0  0  0  0
    8.3620   -0.7013   20.3333 C   0  0  0  0  0  0  0  0  0  0  0  0
    8.0228   -2.0121   20.6216 C   0  0  0  0  0  0  0  0  0  0  0  0
    8.4219   -2.6772   21.7326 N   0  0  0  0  0  0  0  0  0  0  0  0
    9.2007   -2.0378   22.6299 C   0  0  0  0  0  0  0  0  0  0  0  0
    9.6344   -2.6866   23.7890 C   0  0  0  0  0  0  0  0  0  0  0  0
    9.2718   -3.9611   24.0124 F   0  0  0  0  0  0  0  0  0  0  0  0
   10.4391   -2.0705   24.7457 C   0  0  0  0  0  0  0  0  0  0  0  0
   10.8319   -0.7576   24.5483 C   0  0  0  0  0  0  0  0  0  0  0  0
   11.9222    0.1034   25.8272 Br  0  0  0  0  0  0  0  0  0  0  0  0
   10.4230   -0.0727   23.4071 C   0  0  0  0  0  0  0  0  0  0  0  0
    9.6060   -0.7003   22.4371 C   0  0  0  0  0  0  0  0  0  0  0  0
    9.1685   -0.0420   21.2646 C   0  0  0  0  0  0  0  0  0  0  0  0
    9.5758    1.2619   21.0994 O   0  0  0  0  0  0  0  0  0  0  0  0
  1  2  1  0
  2  3  1  0
  3  4  1  0
  4  5  2  0
  4  6  1  0
  6  7  2  0
  7  8  1  0
  8  9  2  0
  9 10  1  0
 10 11  1  0
 10 12  2  0
 12 13  1  0
 13 14  1  0
 13 15  2  0
 15 16  1  0
 16 17  2  0
 16  9  1  0
 17 18  1  0
 17  6  1  0
M  END
>  <enum_smi>  (43) 
CCOC(=O)c1cnc2c(F)cc(Br)cc2c1O

>  <std_smi>  (43) 
CCOC(=O)c1cnc2c(F)cc(Br)cc2c1O

>  <molecule_id>  (43) 
3202683

>  <enum_code>  (43) 
B

>  <codes>  (43) 
MolPort-016-891-170

>  <libraries>  (43) 
molport

>  <PH4_SCORE>  (43) 
-65.3548

>  <o3da_score>  (43) 
72.738795852320521

>  <o3da_score_rel>  (43) 
0.34453442015668911

>  <o3da_align>  (43) 
0.37585646554090951

$$$$
8830151
     RDKit          3D

 18 19  0  0  0  0  0  0  0  0999 V2000
    7.2708    0.6421   18.0302 C   0  0  0  0  0  0  0  0  0  0  0  0
    7.1460   -0.6006   18.8910 C   0  0  0  0  0  0  0  0  0  0  0  0
    8.0780   -0.5388   19.9857 O   0  0  0  0  0  0  0  0  0  0  0  0
    8.0711   -1.6090   20.8225 C   0  0  0  0  0  0  0  0  0  0  0  0
    7.3830   -2.6080   20.6963 O   0  0  0  0  0  0  0  0  0  0  0  0
    9.0228   -1.4094   21.9383 C   0  0  0  0  0  0  0  0  0  0  0  0
    9.1513   -2.4473   22.8454 C   0  0  0  0  0  0  0  0  0  0  0  0
    9.9763   -2.4243   23.9200 N   0  0  0  0  0  0  0  0  0  0  0  0
   10.7303   -1.3269   24.1387 C   0  0  0  0  0  0  0  0  0  0  0  0
   11.5943   -1.2615   25.2351 C   0  0  0  0  0  0  0  0  0  0  0  0
   11.6751   -2.3029   26.0804 F   0  0  0  0  0  0  0  0  0  0  0  0
   12.3929   -0.1517   25.5046 C   0  0  0  0  0  0  0  0  0  0  0  0
   12.3354    0.9396   24.6546 C   0  0  0  0  0  0  0  0  0  0  0  0
   13.4060    2.4577   24.9943 Br  0  0  0  0  0  0  0  0  0  0  0  0
   11.4883    0.9176   23.5497 C   0  0  0  0  0  0  0  0  0  0  0  0
   10.6783   -0.2103   23.2781 C   0  0  0  0  0  0  0  0  0  0  0  0
    9.8048   -0.2745   22.1680 C   0  0  0  0  0  0  0  0  0  0  0  0
    9.7710    0.8268   21.3437 O   0  0  0  0  0  0  0  0  0  0  0  0
  1  2  1  0
  2  3  1  0
  3  4  1  0
  4  5  2  0
  4  6  1  0
  6  7  2  0
  7  8  1  0
  8  9  2  0
  9 10  1  0
 10 11  1  0
 10 12  2  0
 12 13  1  0
 13 14  1  0
 13 15  2  0
 15 16  1  0
 16 17  2  0
 16  9  1  0
 17 18  1  0
 17  6  1  0
M  END
>  <enum_smi>  (44) 
CCOC(=O)c1cnc2c(F)cc(Br)cc2c1O

>  <std_smi>  (44) 
CCOC(=O)c1cnc2c(F)cc(Br)cc2c1O

>  <molecule_id>  (44) 
3202683

>  <enum_code>  (44) 
B

>  <codes>  (44) 
MolPort-016-891-170

>  <libraries>  (44) 
molport

>  <PH4_SCORE>  (44) 
-64.7303

>  <o3da_score>  (44) 
67.286546718597265

>  <o3da_score_rel>  (44) 
0.31870930892373728

>  <o3da_align>  (44) 
0.53931440366638184

$$$$
8830151
     RDKit          3D

 18 19  0  0  0  0  0  0  0  0999 V2000
    5.7066   -1.7226   16.5309 C   0  0  0  0  0  0  0  0  0  0  0  0
    6.5163   -0.6064   17.1630 C   0  0  0  0  0  0  0  0  0  0  0  0
    7.0804   -1.0509   18.4100 O   0  0  0  0  0  0  0  0  0  0  0  0
    7.8347   -0.1349   19.0717 C   0  0  0  0  0  0  0  0  0  0  0  0
    8.0639    1.0032   18.6982 O   0  0  0  0  0  0  0  0  0  0  0  0
    8.3620   -0.7013   20.3333 C   0  0  0  0  0  0  0  0  0  0  0  0
    8.0228   -2.0121   20.6216 C   0  0  0  0  0  0  0  0  0  0  0  0
    8.4219   -2.6771   21.7326 N   0  0  0  0  0  0  0  0  0  0  0  0
    9.2007   -2.0378   22.6298 C   0  0  0  0  0  0  0  0  0  0  0  0
    9.6344   -2.6867   23.7891 C   0  0  0  0  0  0  0  0  0  0  0  0
    9.2718   -3.9611   24.0124 F   0  0  0  0  0  0  0  0  0  0  0  0
   10.4391   -2.0705   24.7457 C   0  0  0  0  0  0  0  0  0  0  0  0
   10.8319   -0.7576   24.5483 C   0  0  0  0  0  0  0  0  0  0  0  0
   11.9223    0.1034   25.8273 Br  0  0  0  0  0  0  0  0  0  0  0  0
   10.4230   -0.0727   23.4071 C   0  0  0  0  0  0  0  0  0  0  0  0
    9.6060   -0.7003   22.4371 C   0  0  0  0  0  0  0  0  0  0  0  0
    9.1685   -0.0420   21.2647 C   0  0  0  0  0  0  0  0  0  0  0  0
    9.5758    1.2619   21.0994 O   0  0  0  0  0  0  0  0  0  0  0  0
  1  2  1  0
  2  3  1  0
  3  4  1  0
  4  5  2  0
  4  6  1  0
  6  7  2  0
  7  8  1  0
  8  9  2  0
  9 10  1  0
 10 11  1  0
 10 12  2  0
 12 13  1  0
 13 14  1  0
 13 15  2  0
 15 16  1  0
 16 17  2  0
 16  9  1  0
 17 18  1  0
 17  6  1  0
M  END
>  <enum_smi>  (45) 
CCOC(=O)c1cnc2c(F)cc(Br)cc2c1O

>  <std_smi>  (45) 
CCOC(=O)c1cnc2c(F)cc(Br)cc2c1O

>  <molecule_id>  (45) 
3202683

>  <enum_code>  (45) 
B

>  <codes>  (45) 
MolPort-016-891-170

>  <libraries>  (45) 
molport

>  <PH4_SCORE>  (45) 
-63.9438

>  <o3da_score>  (45) 
72.738731529636127

>  <o3da_score_rel>  (45) 
0.34453411548600393

>  <o3da_align>  (45) 
0.37586314196136528

$$$$
8830853
     RDKit          3D

 18 19  0  0  0  0  0  0  0  0999 V2000
    4.9340    1.1104   16.8941 C   0  0  0  0  0  0  0  0  0  0  0  0
    5.8190    0.7328   18.0556 C   0  0  0  0  0  0  0  0  0  0  0  0
    6.9655    0.3413   17.8658 O   0  0  0  0  0  0  0  0  0  0  0  0
    5.1862    0.8562   19.2685 N   0  0  0  0  0  0  0  0  0  0  0  0
    5.6933    0.5898   20.5415 C   0  0  0  0  0  0  0  0  0  0  0  0
    4.9571    0.6986   21.7135 C   0  0  0  0  0  0  0  0  0  0  0  0
    5.5769    0.4036   22.9263 C   0  0  0  0  0  0  0  0  0  0  0  0
    6.9077    0.0103   22.9311 C   0  0  0  0  0  0  0  0  0  0  0  0
    7.5651   -0.0718   21.7167 C   0  0  0  0  0  0  0  0  0  0  0  0
    8.8860   -0.4668   21.7686 O   0  0  0  0  0  0  0  0  0  0  0  0
    9.4966   -0.5523   20.4834 C   0  0  0  0  0  0  0  0  0  0  0  0
   10.9271   -0.9936   20.6793 C   0  0  0  0  0  0  0  0  0  0  0  0
   11.8627   -0.8547   19.6443 C   0  0  0  0  0  0  0  0  0  0  0  0
   13.1887   -1.2485   19.8315 C   0  0  0  0  0  0  0  0  0  0  0  0
   13.5942   -1.7756   21.0564 C   0  0  0  0  0  0  0  0  0  0  0  0
   12.6760   -1.9050   22.0970 C   0  0  0  0  0  0  0  0  0  0  0  0
   11.3495   -1.5119   21.9118 C   0  0  0  0  0  0  0  0  0  0  0  0
    6.9891    0.2079   20.5269 N   0  0  0  0  0  0  0  0  0  0  0  0
  1  2  1  0
  2  3  2  0
  2  4  1  0
  4  5  1  0
  5  6  2  0
  6  7  1  0
  7  8  2  0
  8  9  1  0
  9 10  1  0
  9 18  2  0
 10 11  1  0
 11 12  1  0
 12 13  2  0
 13 14  1  0
 14 15  2  0
 15 16  1  0
 16 17  2  0
 17 12  1  0
 18  5  1  0
M  END
>  <enum_smi>  (46) 
CC(=O)Nc1cccc(OCc2ccccc2)n1

>  <std_smi>  (46) 
CC(=O)Nc1cccc(OCc2ccccc2)n1

>  <molecule_id>  (46) 
3229373

>  <enum_code>  (46) 
B

>  <codes>  (46) 
MolPort-018-616-671

>  <libraries>  (46) 
molport

>  <PH4_SCORE>  (46) 
-69.3555

>  <o3da_score>  (46) 
71.598851069752797

>  <o3da_score_rel>  (46) 
0.3391349602114076

>  <o3da_align>  (46) 
0.52517746863535175

$$$$
8830853
     RDKit          3D

 18 19  0  0  0  0  0  0  0  0999 V2000
    8.5041    3.8122   21.4165 C   0  0  0  0  0  0  0  0  0  0  0  0
    8.5294    2.3041   21.4289 C   0  0  0  0  0  0  0  0  0  0  0  0
    8.6729    1.6905   22.4809 O   0  0  0  0  0  0  0  0  0  0  0  0
    8.4058    1.7598   20.1739 N   0  0  0  0  0  0  0  0  0  0  0  0
    8.3950    0.4119   19.8112 C   0  0  0  0  0  0  0  0  0  0  0  0
    8.3079   -0.0437   18.5027 C   0  0  0  0  0  0  0  0  0  0  0  0
    8.3074   -1.4175   18.2679 C   0  0  0  0  0  0  0  0  0  0  0  0
    8.3940   -2.2903   19.3433 C   0  0  0  0  0  0  0  0  0  0  0  0
    8.4780   -1.7495   20.6138 C   0  0  0  0  0  0  0  0  0  0  0  0
    8.5625   -2.6536   21.6525 O   0  0  0  0  0  0  0  0  0  0  0  0
    8.7862   -2.0354   22.9172 C   0  0  0  0  0  0  0  0  0  0  0  0
   10.1302   -1.3495   22.8656 C   0  0  0  0  0  0  0  0  0  0  0  0
   11.1387   -1.8232   22.0144 C   0  0  0  0  0  0  0  0  0  0  0  0
   12.3756   -1.1787   21.9558 C   0  0  0  0  0  0  0  0  0  0  0  0
   12.6131   -0.0510   22.7394 C   0  0  0  0  0  0  0  0  0  0  0  0
   11.6130    0.4371   23.5785 C   0  0  0  0  0  0  0  0  0  0  0  0
   10.3754   -0.2056   23.6386 C   0  0  0  0  0  0  0  0  0  0  0  0
    8.4806   -0.4229   20.8699 N   0  0  0  0  0  0  0  0  0  0  0  0
  1  2  1  0
  2  3  2  0
  2  4  1  0
  4  5  1  0
  5  6  2  0
  6  7  1  0
  7  8  2  0
  8  9  1  0
  9 10  1  0
  9 18  2  0
 10 11  1  0
 11 12  1  0
 12 13  2  0
 13 14  1  0
 14 15  2  0
 15 16  1  0
 16 17  2  0
 17 12  1  0
 18  5  1  0
M  END
>  <enum_smi>  (47) 
CC(=O)Nc1cccc(OCc2ccccc2)n1

>  <std_smi>  (47) 
CC(=O)Nc1cccc(OCc2ccccc2)n1

>  <molecule_id>  (47) 
3229373

>  <enum_code>  (47) 
B

>  <codes>  (47) 
MolPort-018-616-671

>  <libraries>  (47) 
molport

>  <PH4_SCORE>  (47) 
-68.8953

>  <o3da_score>  (47) 
87.431725450157856

>  <o3da_score_rel>  (47) 
0.41412891811444497

>  <o3da_align>  (47) 
0.2906302658713466

$$$$
8830853
     RDKit          3D

 18 19  0  0  0  0  0  0  0  0999 V2000
    7.4237   -2.2909   19.3960 C   0  0  0  0  0  0  0  0  0  0  0  0
    8.2661   -1.8736   20.5755 C   0  0  0  0  0  0  0  0  0  0  0  0
    8.6818   -2.7077   21.3724 O   0  0  0  0  0  0  0  0  0  0  0  0
    8.4601   -0.5151   20.6363 N   0  0  0  0  0  0  0  0  0  0  0  0
    9.1755    0.2163   21.5859 C   0  0  0  0  0  0  0  0  0  0  0  0
    9.2691    1.6014   21.5959 C   0  0  0  0  0  0  0  0  0  0  0  0
   10.0143    2.2173   22.5997 C   0  0  0  0  0  0  0  0  0  0  0  0
   10.6403    1.4340   23.5588 C   0  0  0  0  0  0  0  0  0  0  0  0
   10.4935    0.0611   23.4730 C   0  0  0  0  0  0  0  0  0  0  0  0
   11.1324   -0.6784   24.4470 O   0  0  0  0  0  0  0  0  0  0  0  0
   11.0740   -2.0831   24.2130 C   0  0  0  0  0  0  0  0  0  0  0  0
   11.8103   -2.3689   22.9262 C   0  0  0  0  0  0  0  0  0  0  0  0
   11.4244   -3.4405   22.1085 C   0  0  0  0  0  0  0  0  0  0  0  0
   12.0957   -3.6943   20.9112 C   0  0  0  0  0  0  0  0  0  0  0  0
   13.1518   -2.8754   20.5158 C   0  0  0  0  0  0  0  0  0  0  0  0
   13.5347   -1.7989   21.3138 C   0  0  0  0  0  0  0  0  0  0  0  0
   12.8649   -1.5432   22.5115 C   0  0  0  0  0  0  0  0  0  0  0  0
    9.7775   -0.5622   22.5115 N   0  0  0  0  0  0  0  0  0  0  0  0
  1  2  1  0
  2  3  2  0
  2  4  1  0
  4  5  1  0
  5  6  2  0
  6  7  1  0
  7  8  2  0
  8  9  1  0
  9 10  1  0
  9 18  2  0
 10 11  1  0
 11 12  1  0
 12 13  2  0
 13 14  1  0
 14 15  2  0
 15 16  1  0
 16 17  2  0
 17 12  1  0
 18  5  1  0
M  END
>  <enum_smi>  (48) 
CC(=O)Nc1cccc(OCc2ccccc2)n1

>  <std_smi>  (48) 
CC(=O)Nc1cccc(OCc2ccccc2)n1

>  <molecule_id>  (48) 
3229373

>  <enum_code>  (48) 
B

>  <codes>  (48) 
MolPort-018-616-671

>  <libraries>  (48) 
molport

>  <PH4_SCORE>  (48) 
-68.6866

>  <o3da_score>  (48) 
74.281020226590655

>  <o3da_score_rel>  (48) 
0.35183931672961916

>  <o3da_align>  (48) 
0.36044541776892347

$$$$
8830853
     RDKit          3D

 18 19  0  0  0  0  0  0  0  0999 V2000
    4.6264    2.0919   22.0301 C   0  0  0  0  0  0  0  0  0  0  0  0
    5.6335    0.9795   21.8785 C   0  0  0  0  0  0  0  0  0  0  0  0
    6.0159    0.3458   22.8563 O   0  0  0  0  0  0  0  0  0  0  0  0
    6.0503    0.8125   20.5805 N   0  0  0  0  0  0  0  0  0  0  0  0
    6.9709   -0.1086   20.0777 C   0  0  0  0  0  0  0  0  0  0  0  0
    7.2957   -0.2332   18.7336 C   0  0  0  0  0  0  0  0  0  0  0  0
    8.2329   -1.1925   18.3549 C   0  0  0  0  0  0  0  0  0  0  0  0
    8.8148   -1.9944   19.3265 C   0  0  0  0  0  0  0  0  0  0  0  0
    8.4329   -1.8016   20.6421 C   0  0  0  0  0  0  0  0  0  0  0  0
    9.0366   -2.6203   21.5742 O   0  0  0  0  0  0  0  0  0  0  0  0
    8.8508   -2.1751   22.9155 C   0  0  0  0  0  0  0  0  0  0  0  0
    9.5174   -0.8272   23.0520 C   0  0  0  0  0  0  0  0  0  0  0  0
    8.7476    0.3366   23.1889 C   0  0  0  0  0  0  0  0  0  0  0  0
    9.3649    1.5806   23.3310 C   0  0  0  0  0  0  0  0  0  0  0  0
   10.7554    1.6722   23.3468 C   0  0  0  0  0  0  0  0  0  0  0  0
   11.5306    0.5202   23.2257 C   0  0  0  0  0  0  0  0  0  0  0  0
   10.9154   -0.7248   23.0836 C   0  0  0  0  0  0  0  0  0  0  0  0
    7.5274   -0.8799   21.0371 N   0  0  0  0  0  0  0  0  0  0  0  0
  1  2  1  0
  2  3  2  0
  2  4  1  0
  4  5  1  0
  5  6  2  0
  6  7  1  0
  7  8  2  0
  8  9  1  0
  9 10  1  0
  9 18  2  0
 10 11  1  0
 11 12  1  0
 12 13  2  0
 13 14  1  0
 14 15  2  0
 15 16  1  0
 16 17  2  0
 17 12  1  0
 18  5  1  0
M  END
>  <enum_smi>  (49) 
CC(=O)Nc1cccc(OCc2ccccc2)n1

>  <std_smi>  (49) 
CC(=O)Nc1cccc(OCc2ccccc2)n1

>  <molecule_id>  (49) 
3229373

>  <enum_code>  (49) 
B

>  <codes>  (49) 
MolPort-018-616-671

>  <libraries>  (49) 
molport

>  <PH4_SCORE>  (49) 
-67.1981

>  <o3da_score>  (49) 
82.283290320027859

>  <o3da_score_rel>  (49) 
0.38974285162146938

>  <o3da_align>  (49) 
0.49882900232610067

$$$$
8830853
     RDKit          3D

 18 19  0  0  0  0  0  0  0  0999 V2000
   14.6809   -3.3505   19.9729 C   0  0  0  0  0  0  0  0  0  0  0  0
   13.4009   -2.9844   20.6818 C   0  0  0  0  0  0  0  0  0  0  0  0
   12.3854   -3.6531   20.5224 O   0  0  0  0  0  0  0  0  0  0  0  0
   13.5250   -1.8555   21.4543 N   0  0  0  0  0  0  0  0  0  0  0  0
   12.5529   -1.2296   22.2365 C   0  0  0  0  0  0  0  0  0  0  0  0
   12.7716   -0.0774   22.9796 C   0  0  0  0  0  0  0  0  0  0  0  0
   11.7184    0.4538   23.7215 C   0  0  0  0  0  0  0  0  0  0  0  0
   10.4837   -0.1792   23.6980 C   0  0  0  0  0  0  0  0  0  0  0  0
   10.3543   -1.3224   22.9297 C   0  0  0  0  0  0  0  0  0  0  0  0
    9.1101   -1.9186   22.9356 O   0  0  0  0  0  0  0  0  0  0  0  0
    9.0123   -3.0210   22.0375 C   0  0  0  0  0  0  0  0  0  0  0  0
    7.6238   -3.6001   22.1653 C   0  0  0  0  0  0  0  0  0  0  0  0
    6.9611   -3.5936   23.4008 C   0  0  0  0  0  0  0  0  0  0  0  0
    5.6712   -4.1149   23.5145 C   0  0  0  0  0  0  0  0  0  0  0  0
    5.0287   -4.6390   22.3943 C   0  0  0  0  0  0  0  0  0  0  0  0
    5.6724   -4.6376   21.1582 C   0  0  0  0  0  0  0  0  0  0  0  0
    6.9623   -4.1167   21.0421 C   0  0  0  0  0  0  0  0  0  0  0  0
   11.3579   -1.8589   22.2013 N   0  0  0  0  0  0  0  0  0  0  0  0
  1  2  1  0
  2  3  2  0
  2  4  1  0
  4  5  1  0
  5  6  2  0
  6  7  1  0
  7  8  2  0
  8  9  1  0
  9 10  1  0
  9 18  2  0
 10 11  1  0
 11 12  1  0
 12 13  2  0
 13 14  1  0
 14 15  2  0
 15 16  1  0
 16 17  2  0
 17 12  1  0
 18  5  1  0
M  END
>  <enum_smi>  (50) 
CC(=O)Nc1cccc(OCc2ccccc2)n1

>  <std_smi>  (50) 
CC(=O)Nc1cccc(OCc2ccccc2)n1

>  <molecule_id>  (50) 
3229373

>  <enum_code>  (50) 
B

>  <codes>  (50) 
MolPort-018-616-671

>  <libraries>  (50) 
molport

>  <PH4_SCORE>  (50) 
-66.8074

>  <o3da_score>  (50) 
58.908394255208449

>  <o3da_score_rel>  (50) 
0.27902537042661801

>  <o3da_align>  (50) 
0.15473634964780369

$$$$
8830974
     RDKit          3D

 18 19  0  0  1  0  0  0  0  0999 V2000
   12.8391   -4.3987   22.5103 C   0  0  0  0  0  0  0  0  0  0  0  0
   11.5780   -4.5481   21.6673 C   0  0  0  0  0  0  0  0  0  0  0  0
   11.7171   -5.7283   20.7110 C   0  0  0  0  0  0  0  0  0  0  0  0
   10.4925   -4.7739   22.5724 O   0  0  0  0  0  0  0  0  0  0  0  0
    9.2297   -4.9424   21.9382 C   0  0  1  0  0  0  0  0  0  0  0  0
    8.1901   -5.1422   23.0364 C   0  0  0  0  0  0  0  0  0  0  0  0
    8.7938   -3.7547   21.0816 C   0  0  0  0  0  0  0  0  0  0  0  0
    8.5256   -3.8461   19.8058 N   0  0  0  0  0  0  0  0  0  0  0  0
    8.2005   -2.5700   19.4447 N   0  0  0  0  0  0  0  0  0  0  0  0
    8.2927   -1.7166   20.5337 C   0  0  0  0  0  0  0  0  0  0  0  0
    8.0829   -0.5156   20.5307 O   0  0  0  0  0  0  0  0  0  0  0  0
    8.6880   -2.5050   21.5803 N   0  0  0  0  0  0  0  0  0  0  0  0
    8.8837   -2.0119   22.9253 C   0  0  0  0  0  0  0  0  0  0  0  0
   10.1522   -1.2369   23.0420 C   0  0  0  0  0  0  0  0  0  0  0  0
   10.5826   -0.2808   23.9408 C   0  0  0  0  0  0  0  0  0  0  0  0
   11.8877    0.0920   23.5373 C   0  0  0  0  0  0  0  0  0  0  0  0
   12.1733   -0.6588   22.4222 C   0  0  0  0  0  0  0  0  0  0  0  0
   11.1267   -1.4645   22.1126 O   0  0  0  0  0  0  0  0  0  0  0  0
  1  2  1  0
  2  3  1  0
  2  4  1  0
  4  5  1  0
  5  6  1  1
  5  7  1  0
  7  8  2  0
  8  9  1  0
  9 10  1  0
 10 11  2  0
 10 12  1  0
 12 13  1  0
 12  7  1  0
 13 14  1  0
 14 15  2  0
 15 16  1  0
 16 17  2  0
 17 18  1  0
 18 14  1  0
M  END
>  <enum_smi>  (51) 
CC(C)OC(C)c1n[nH]c(=O)n1Cc1ccco1

>  <std_smi>  (51) 
CC(C)OC(C)c1n[nH]c(=O)n1Cc1ccco1

>  <molecule_id>  (51) 
3191034

>  <enum_code>  (51) 
B

>  <codes>  (51) 
MolPort-016-619-720

>  <libraries>  (51) 
molport

>  <PH4_SCORE>  (51) 
-64.7808

>  <o3da_score>  (51) 
77.615245181898942

>  <o3da_score_rel>  (51) 
0.36763219930608337

>  <o3da_align>  (51) 
0.27477563332276245

$$$$
8830974
     RDKit          3D

 18 19  0  0  1  0  0  0  0  0999 V2000
    4.8275   -4.0938   22.4455 C   0  0  0  0  0  0  0  0  0  0  0  0
    5.4831   -4.3375   21.0911 C   0  0  0  0  0  0  0  0  0  0  0  0
    4.4364   -4.3029   19.9823 C   0  0  0  0  0  0  0  0  0  0  0  0
    6.4419   -3.2932   20.8951 O   0  0  0  0  0  0  0  0  0  0  0  0
    7.4672   -3.2501   21.8810 C   0  0  1  0  0  0  0  0  0  0  0  0
    8.2159   -4.5777   21.8196 C   0  0  0  0  0  0  0  0  0  0  0  0
    8.4806   -2.1235   21.6842 C   0  0  0  0  0  0  0  0  0  0  0  0
    9.7718   -2.2868   21.8035 N   0  0  0  0  0  0  0  0  0  0  0  0
   10.2847   -1.0438   21.5653 N   0  0  0  0  0  0  0  0  0  0  0  0
    9.2670   -0.1364   21.3128 C   0  0  0  0  0  0  0  0  0  0  0  0
    9.4002    1.0533   21.0821 O   0  0  0  0  0  0  0  0  0  0  0  0
    8.1071   -0.8571   21.4048 N   0  0  0  0  0  0  0  0  0  0  0  0
    6.7941   -0.2929   21.1856 C   0  0  0  0  0  0  0  0  0  0  0  0
    6.5876    0.0653   19.7530 C   0  0  0  0  0  0  0  0  0  0  0  0
    7.1970   -0.3572   18.5879 C   0  0  0  0  0  0  0  0  0  0  0  0
    6.5688    0.3422   17.5289 C   0  0  0  0  0  0  0  0  0  0  0  0
    5.6163    1.1439   18.1107 C   0  0  0  0  0  0  0  0  0  0  0  0
    5.6222    0.9855   19.4582 O   0  0  0  0  0  0  0  0  0  0  0  0
  1  2  1  0
  2  3  1  0
  2  4  1  0
  4  5  1  0
  5  6  1  6
  5  7  1  0
  7  8  2  0
  8  9  1  0
  9 10  1  0
 10 11  2  0
 10 12  1  0
 12 13  1  0
 12  7  1  0
 13 14  1  0
 14 15  2  0
 15 16  1  0
 16 17  2  0
 17 18  1  0
 18 14  1  0
M  END
>  <enum_smi>  (52) 
CC(C)OC(C)c1n[nH]c(=O)n1Cc1ccco1

>  <std_smi>  (52) 
CC(C)OC(C)c1n[nH]c(=O)n1Cc1ccco1

>  <molecule_id>  (52) 
3191034

>  <enum_code>  (52) 
B

>  <codes>  (52) 
MolPort-016-619-720

>  <libraries>  (52) 
molport

>  <PH4_SCORE>  (52) 
-64.7115

>  <o3da_score>  (52) 
69.473581831889547

>  <o3da_score_rel>  (52) 
0.32906841462230152

>  <o3da_align>  (52) 
0.38379454588356038

$$$$
8830974
     RDKit          3D

 18 19  0  0  1  0  0  0  0  0999 V2000
    5.7499   -1.2465   24.2475 C   0  0  0  0  0  0  0  0  0  0  0  0
    6.0148   -1.7357   22.8284 C   0  0  0  0  0  0  0  0  0  0  0  0
    4.7139   -2.1872   22.1723 C   0  0  0  0  0  0  0  0  0  0  0  0
    6.5754   -0.6364   22.1033 O   0  0  0  0  0  0  0  0  0  0  0  0
    6.8785   -0.9281   20.7439 C   0  0  1  0  0  0  0  0  0  0  0  0
    7.4874    0.3294   20.1317 C   0  0  0  0  0  0  0  0  0  0  0  0
    7.8684   -2.0764   20.5538 C   0  0  0  0  0  0  0  0  0  0  0  0
    7.9094   -2.8223   19.4814 N   0  0  0  0  0  0  0  0  0  0  0  0
    8.9101   -3.7149   19.7387 N   0  0  0  0  0  0  0  0  0  0  0  0
    9.4549   -3.4887   20.9935 C   0  0  0  0  0  0  0  0  0  0  0  0
   10.3512   -4.1272   21.5184 O   0  0  0  0  0  0  0  0  0  0  0  0
    8.7574   -2.4286   21.5062 N   0  0  0  0  0  0  0  0  0  0  0  0
    9.0241   -1.8456   22.8021 C   0  0  0  0  0  0  0  0  0  0  0  0
   10.3972   -1.2676   22.8670 C   0  0  0  0  0  0  0  0  0  0  0  0
   10.9545   -0.2706   23.6433 C   0  0  0  0  0  0  0  0  0  0  0  0
   12.3111   -0.1662   23.2507 C   0  0  0  0  0  0  0  0  0  0  0  0
   12.4979   -1.1043   22.2640 C   0  0  0  0  0  0  0  0  0  0  0  0
   11.3432   -1.7744   22.0223 O   0  0  0  0  0  0  0  0  0  0  0  0
  1  2  1  0
  2  3  1  0
  2  4  1  0
  4  5  1  0
  5  6  1  1
  5  7  1  0
  7  8  2  0
  8  9  1  0
  9 10  1  0
 10 11  2  0
 10 12  1  0
 12 13  1  0
 12  7  1  0
 13 14  1  0
 14 15  2  0
 15 16  1  0
 16 17  2  0
 17 18  1  0
 18 14  1  0
M  END
>  <enum_smi>  (53) 
CC(C)OC(C)c1n[nH]c(=O)n1Cc1ccco1

>  <std_smi>  (53) 
CC(C)OC(C)c1n[nH]c(=O)n1Cc1ccco1

>  <molecule_id>  (53) 
3191034

>  <enum_code>  (53) 
B

>  <codes>  (53) 
MolPort-016-619-720

>  <libraries>  (53) 
molport

>  <PH4_SCORE>  (53) 
-63.3274

>  <o3da_score>  (53) 
74.788683975599369

>  <o3da_score_rel>  (53) 
0.35424391572455433

>  <o3da_align>  (53) 
0.39590093104401669

$$$$
8830974
     RDKit          3D

 18 19  0  0  1  0  0  0  0  0999 V2000
    7.0674   -2.5484   24.1211 C   0  0  0  0  0  0  0  0  0  0  0  0
    7.8098   -1.3406   23.5615 C   0  0  0  0  0  0  0  0  0  0  0  0
    7.9598   -0.2673   24.6348 C   0  0  0  0  0  0  0  0  0  0  0  0
    9.0988   -1.7985   23.1404 O   0  0  0  0  0  0  0  0  0  0  0  0
    9.9302   -0.7802   22.5954 C   0  0  1  0  0  0  0  0  0  0  0  0
   11.2396   -1.4377   22.1715 C   0  0  0  0  0  0  0  0  0  0  0  0
    9.3385   -0.0712   21.3781 C   0  0  0  0  0  0  0  0  0  0  0  0
    9.6129    1.1667   21.0611 N   0  0  0  0  0  0  0  0  0  0  0  0
    8.8704    1.3916   19.9374 N   0  0  0  0  0  0  0  0  0  0  0  0
    8.1401    0.2620   19.6011 C   0  0  0  0  0  0  0  0  0  0  0  0
    7.3705    0.1518   18.6618 O   0  0  0  0  0  0  0  0  0  0  0  0
    8.4523   -0.6693   20.5543 N   0  0  0  0  0  0  0  0  0  0  0  0
    7.9205   -2.0137   20.5653 C   0  0  0  0  0  0  0  0  0  0  0  0
    6.4316   -2.0096   20.6468 C   0  0  0  0  0  0  0  0  0  0  0  0
    5.4821   -1.0575   20.3320 C   0  0  0  0  0  0  0  0  0  0  0  0
    4.2221   -1.6344   20.6235 C   0  0  0  0  0  0  0  0  0  0  0  0
    4.4794   -2.8996   21.0944 C   0  0  0  0  0  0  0  0  0  0  0  0
    5.8154   -3.1348   21.1152 O   0  0  0  0  0  0  0  0  0  0  0  0
  1  2  1  0
  2  3  1  0
  2  4  1  0
  4  5  1  0
  5  6  1  6
  5  7  1  0
  7  8  2  0
  8  9  1  0
  9 10  1  0
 10 11  2  0
 10 12  1  0
 12 13  1  0
 12  7  1  0
 13 14  1  0
 14 15  2  0
 15 16  1  0
 16 17  2  0
 17 18  1  0
 18 14  1  0
M  END
>  <enum_smi>  (54) 
CC(C)OC(C)c1n[nH]c(=O)n1Cc1ccco1

>  <std_smi>  (54) 
CC(C)OC(C)c1n[nH]c(=O)n1Cc1ccco1

>  <molecule_id>  (54) 
3191034

>  <enum_code>  (54) 
B

>  <codes>  (54) 
MolPort-016-619-720

>  <libraries>  (54) 
molport

>  <PH4_SCORE>  (54) 
-63.1954

>  <o3da_score>  (54) 
72.275051670693045

>  <o3da_score_rel>  (54) 
0.3423378504878366

>  <o3da_align>  (54) 
0.30840414655067711

$$$$
8830974
     RDKit          3D

 18 19  0  0  1  0  0  0  0  0999 V2000
    6.8098    0.2102   17.7468 C   0  0  0  0  0  0  0  0  0  0  0  0
    7.2133   -0.0345   19.1962 C   0  0  0  0  0  0  0  0  0  0  0  0
    6.0125   -0.5115   20.0067 C   0  0  0  0  0  0  0  0  0  0  0  0
    8.2301   -1.0418   19.1844 O   0  0  0  0  0  0  0  0  0  0  0  0
    8.7190   -1.3921   20.4741 C   0  0  1  0  0  0  0  0  0  0  0  0
    9.8155   -2.4346   20.2792 C   0  0  0  0  0  0  0  0  0  0  0  0
    9.3093   -0.2228   21.2607 C   0  0  0  0  0  0  0  0  0  0  0  0
    9.1995    1.0250   20.8882 N   0  0  0  0  0  0  0  0  0  0  0  0
    9.8733    1.7177   21.8529 N   0  0  0  0  0  0  0  0  0  0  0  0
   10.3951    0.8511   22.8012 C   0  0  0  0  0  0  0  0  0  0  0  0
   11.0602    1.1605   23.7750 O   0  0  0  0  0  0  0  0  0  0  0  0
   10.0251   -0.4011   22.3910 N   0  0  0  0  0  0  0  0  0  0  0  0
   10.3475   -1.6095   23.1164 C   0  0  0  0  0  0  0  0  0  0  0  0
   11.7180   -2.0945   22.7849 C   0  0  0  0  0  0  0  0  0  0  0  0
   12.5445   -3.0313   23.3735 C   0  0  0  0  0  0  0  0  0  0  0  0
   13.7327   -3.0596   22.6037 C   0  0  0  0  0  0  0  0  0  0  0  0
   13.5576   -2.1433   21.5946 C   0  0  0  0  0  0  0  0  0  0  0  0
   12.3414   -1.5511   21.6979 O   0  0  0  0  0  0  0  0  0  0  0  0
  1  2  1  0
  2  3  1  0
  2  4  1  0
  4  5  1  0
  5  6  1  6
  5  7  1  0
  7  8  2  0
  8  9  1  0
  9 10  1  0
 10 11  2  0
 10 12  1  0
 12 13  1  0
 12  7  1  0
 13 14  1  0
 14 15  2  0
 15 16  1  0
 16 17  2  0
 17 18  1  0
 18 14  1  0
M  END
>  <enum_smi>  (55) 
CC(C)OC(C)c1n[nH]c(=O)n1Cc1ccco1

>  <std_smi>  (55) 
CC(C)OC(C)c1n[nH]c(=O)n1Cc1ccco1

>  <molecule_id>  (55) 
3191034

>  <enum_code>  (55) 
B

>  <codes>  (55) 
MolPort-016-619-720

>  <libraries>  (55) 
molport

>  <PH4_SCORE>  (55) 
-63.0436

>  <o3da_score>  (55) 
71.314756711300731

>  <o3da_score_rel>  (55) 
0.33778931949915558

>  <o3da_align>  (55) 
0.48259185571971552

$$$$
8831126
     RDKit          3D

 20 22  0  0  1  0  0  0  0  0999 V2000
    6.9826    2.0954   18.9782 C   0  0  0  0  0  0  0  0  0  0  0  0
    6.0170    1.2171   18.4144 O   0  0  0  0  0  0  0  0  0  0  0  0
    6.1206   -0.1274   18.8900 C   0  0  1  0  0  0  0  0  0  0  0  0
    7.4920   -0.7118   18.5404 C   0  0  0  0  0  0  0  0  0  0  0  0
    7.7304   -2.0693   19.1958 C   0  0  0  0  0  0  0  0  0  0  0  0
    7.4730   -2.0880   20.7077 C   0  0  1  0  0  0  0  0  0  0  0  0
    8.6336   -1.5697   21.5036 C   0  0  0  0  0  0  0  0  0  0  0  0
    9.3503   -0.5006   21.2229 N   0  0  0  0  0  0  0  0  0  0  0  0
   10.2929   -0.4655   22.2225 C   0  0  0  0  0  0  0  0  0  0  0  0
   11.3269    0.5994   22.3065 C   0  0  0  0  0  0  0  0  0  0  0  0
   12.5519   -0.0401   22.9165 C   0  0  0  0  0  0  0  0  0  0  0  0
   13.2506    0.5998   23.9520 C   0  0  0  0  0  0  0  0  0  0  0  0
   14.3844    0.0099   24.5131 C   0  0  0  0  0  0  0  0  0  0  0  0
   14.8307   -1.2262   24.0488 C   0  0  0  0  0  0  0  0  0  0  0  0
   14.1416   -1.8761   23.0267 C   0  0  0  0  0  0  0  0  0  0  0  0
   13.0076   -1.2882   22.4639 C   0  0  0  0  0  0  0  0  0  0  0  0
   10.1579   -1.4315   23.1419 N   0  0  0  0  0  0  0  0  0  0  0  0
    9.1245   -2.1309   22.6496 N   0  0  0  0  0  0  0  0  0  0  0  0
    6.1416   -1.4227   21.0786 C   0  0  0  0  0  0  0  0  0  0  0  0
    5.9153   -0.0729   20.4055 C   0  0  0  0  0  0  0  0  0  0  0  0
  1  2  1  0
  3  2  1  1
  3  4  1  0
  4  5  1  0
  5  6  1  0
  6  7  1  1
  6 19  1  0
  7  8  2  0
  8  9  1  0
  9 10  1  0
  9 17  2  0
 10 11  1  0
 11 12  2  0
 12 13  1  0
 13 14  2  0
 14 15  1  0
 15 16  2  0
 16 11  1  0
 17 18  1  0
 18  7  1  0
 19 20  1  0
 20  3  1  0
M  END
>  <enum_smi>  (56) 
COC1CCC(c2nc(Cc3ccccc3)n[nH]2)CC1

>  <std_smi>  (56) 
COC1CCC(c2nc(Cc3ccccc3)n[nH]2)CC1

>  <molecule_id>  (56) 
3192099

>  <enum_code>  (56) 
B

>  <codes>  (56) 
MolPort-016-621-059

>  <libraries>  (56) 
molport

>  <PH4_SCORE>  (56) 
-63.8011

>  <o3da_score>  (56) 
73.647253898523118

>  <o3da_score_rel>  (56) 
0.34883742053657657

>  <o3da_align>  (56) 
0.56251844759915237

$$$$
8831126
     RDKit          3D

 20 22  0  0  1  0  0  0  0  0999 V2000
    4.9240    1.9734   18.6283 C   0  0  0  0  0  0  0  0  0  0  0  0
    6.0532    1.1501   18.3660 O   0  0  0  0  0  0  0  0  0  0  0  0
    5.9872   -0.1296   19.0003 C   0  0  1  0  0  0  0  0  0  0  0  0
    7.2012   -0.9788   18.6141 C   0  0  0  0  0  0  0  0  0  0  0  0
    7.2842   -2.2746   19.4164 C   0  0  0  0  0  0  0  0  0  0  0  0
    7.1876   -2.0778   20.9344 C   0  0  1  0  0  0  0  0  0  0  0  0
    8.4943   -1.6825   21.5557 C   0  0  0  0  0  0  0  0  0  0  0  0
    9.3356   -0.7841   21.0861 N   0  0  0  0  0  0  0  0  0  0  0  0
   10.3741   -0.8048   21.9862 C   0  0  0  0  0  0  0  0  0  0  0  0
   11.5655    0.0738   21.8492 C   0  0  0  0  0  0  0  0  0  0  0  0
   12.3269   -0.0312   23.1497 C   0  0  0  0  0  0  0  0  0  0  0  0
   13.1939   -1.1096   23.3843 C   0  0  0  0  0  0  0  0  0  0  0  0
   13.8946   -1.2078   24.5874 C   0  0  0  0  0  0  0  0  0  0  0  0
   13.7400   -0.2290   25.5674 C   0  0  0  0  0  0  0  0  0  0  0  0
   12.8884    0.8515   25.3442 C   0  0  0  0  0  0  0  0  0  0  0  0
   12.1865    0.9517   24.1419 C   0  0  0  0  0  0  0  0  0  0  0  0
   10.1885   -1.6336   23.0231 N   0  0  0  0  0  0  0  0  0  0  0  0
    9.0112   -2.1963   22.7124 N   0  0  0  0  0  0  0  0  0  0  0  0
    6.0282   -1.1539   21.3279 C   0  0  0  0  0  0  0  0  0  0  0  0
    5.9540    0.1302   20.5082 C   0  0  0  0  0  0  0  0  0  0  0  0
  1  2  1  0
  3  2  1  6
  3  4  1  0
  4  5  1  0
  5  6  1  0
  6  7  1  6
  6 19  1  0
  7  8  2  0
  8  9  1  0
  9 10  1  0
  9 17  2  0
 10 11  1  0
 11 12  2  0
 12 13  1  0
 13 14  2  0
 14 15  1  0
 15 16  2  0
 16 11  1  0
 17 18  1  0
 18  7  1  0
 19 20  1  0
 20  3  1  0
M  END
>  <enum_smi>  (57) 
COC1CCC(c2nc(Cc3ccccc3)n[nH]2)CC1

>  <std_smi>  (57) 
COC1CCC(c2nc(Cc3ccccc3)n[nH]2)CC1

>  <molecule_id>  (57) 
3192099

>  <enum_code>  (57) 
B

>  <codes>  (57) 
MolPort-016-621-059

>  <libraries>  (57) 
molport

>  <PH4_SCORE>  (57) 
-62.7303

>  <o3da_score>  (57) 
65.180386117925323

>  <o3da_score_rel>  (57) 
0.30873327326344635

>  <o3da_align>  (57) 
0.64429063595563951

$$$$
8831126
     RDKit          3D

 20 22  0  0  1  0  0  0  0  0999 V2000
    3.9387    1.1611   19.7997 C   0  0  0  0  0  0  0  0  0  0  0  0
    5.2695    0.9826   19.3318 O   0  0  0  0  0  0  0  0  0  0  0  0
    5.7375   -0.3642   19.4395 C   0  0  1  0  0  0  0  0  0  0  0  0
    7.1599   -0.4798   18.8848 C   0  0  0  0  0  0  0  0  0  0  0  0
    7.7810   -1.8472   19.1562 C   0  0  0  0  0  0  0  0  0  0  0  0
    7.7051   -2.2891   20.6230 C   0  0  1  0  0  0  0  0  0  0  0  0
    8.7934   -1.6962   21.4678 C   0  0  0  0  0  0  0  0  0  0  0  0
    9.5381   -0.6557   21.1547 N   0  0  0  0  0  0  0  0  0  0  0  0
   10.3883   -0.5259   22.2267 C   0  0  0  0  0  0  0  0  0  0  0  0
   11.4166    0.5448   22.3038 C   0  0  0  0  0  0  0  0  0  0  0  0
   12.6042   -0.0525   23.0213 C   0  0  0  0  0  0  0  0  0  0  0  0
   13.0669   -1.3355   22.6904 C   0  0  0  0  0  0  0  0  0  0  0  0
   14.1622   -1.8882   23.3560 C   0  0  0  0  0  0  0  0  0  0  0  0
   14.8092   -1.1649   24.3563 C   0  0  0  0  0  0  0  0  0  0  0  0
   14.3649    0.1134   24.6892 C   0  0  0  0  0  0  0  0  0  0  0  0
   13.2698    0.6682   24.0252 C   0  0  0  0  0  0  0  0  0  0  0  0
   10.1664   -1.4031   23.2157 N   0  0  0  0  0  0  0  0  0  0  0  0
    9.1771   -2.1478   22.7000 N   0  0  0  0  0  0  0  0  0  0  0  0
    6.3048   -2.0923   21.2171 C   0  0  0  0  0  0  0  0  0  0  0  0
    5.6951   -0.7249   20.9262 C   0  0  0  0  0  0  0  0  0  0  0  0
  1  2  1  0
  3  2  1  1
  3  4  1  0
  4  5  1  0
  5  6  1  0
  6  7  1  1
  6 19  1  0
  7  8  2  0
  8  9  1  0
  9 10  1  0
  9 17  2  0
 10 11  1  0
 11 12  2  0
 12 13  1  0
 13 14  2  0
 14 15  1  0
 15 16  2  0
 16 11  1  0
 17 18  1  0
 18  7  1  0
 19 20  1  0
 20  3  1  0
M  END
>  <enum_smi>  (58) 
COC1CCC(c2nc(Cc3ccccc3)n[nH]2)CC1

>  <std_smi>  (58) 
COC1CCC(c2nc(Cc3ccccc3)n[nH]2)CC1

>  <molecule_id>  (58) 
3192099

>  <enum_code>  (58) 
B

>  <codes>  (58) 
MolPort-016-621-059

>  <libraries>  (58) 
molport

>  <PH4_SCORE>  (58) 
-62.6024

>  <o3da_score>  (58) 
70.14840827929973

>  <o3da_score_rel>  (58) 
0.33226479608614795

>  <o3da_align>  (58) 
0.55435879924366227

$$$$
8831126
     RDKit          3D

 20 22  0  0  1  0  0  0  0  0999 V2000
   11.6856    1.9257   20.0462 C   0  0  0  0  0  0  0  0  0  0  0  0
   11.3071    2.4450   18.7777 O   0  0  0  0  0  0  0  0  0  0  0  0
   10.0204    2.0018   18.3394 C   0  0  1  0  0  0  0  0  0  0  0  0
    9.9979    0.4763   18.2105 C   0  0  0  0  0  0  0  0  0  0  0  0
    8.5966   -0.0643   17.9398 C   0  0  0  0  0  0  0  0  0  0  0  0
    7.5312    0.4390   18.9215 C   0  0  1  0  0  0  0  0  0  0  0  0
    7.5125   -0.3319   20.2080 C   0  0  0  0  0  0  0  0  0  0  0  0
    8.5678   -0.7366   20.8846 N   0  0  0  0  0  0  0  0  0  0  0  0
    8.0323   -1.4081   21.9575 C   0  0  0  0  0  0  0  0  0  0  0  0
    8.8768   -2.0381   23.0062 C   0  0  0  0  0  0  0  0  0  0  0  0
   10.2142   -1.3375   22.9573 C   0  0  0  0  0  0  0  0  0  0  0  0
   10.4306   -0.1602   23.6900 C   0  0  0  0  0  0  0  0  0  0  0  0
   11.6656    0.4885   23.6419 C   0  0  0  0  0  0  0  0  0  0  0  0
   12.6984   -0.0328   22.8648 C   0  0  0  0  0  0  0  0  0  0  0  0
   12.4995   -1.2057   22.1387 C   0  0  0  0  0  0  0  0  0  0  0  0
   11.2654   -1.8561   22.1851 C   0  0  0  0  0  0  0  0  0  0  0  0
    6.6929   -1.3889   22.0072 N   0  0  0  0  0  0  0  0  0  0  0  0
    6.3896   -0.7309   20.8783 N   0  0  0  0  0  0  0  0  0  0  0  0
    7.6030    1.9572   19.1287 C   0  0  0  0  0  0  0  0  0  0  0  0
    9.0122    2.4810   19.3864 C   0  0  0  0  0  0  0  0  0  0  0  0
  1  2  1  0
  3  2  1  1
  3  4  1  0
  4  5  1  0
  5  6  1  0
  6  7  1  1
  6 19  1  0
  7  8  2  0
  8  9  1  0
  9 10  1  0
  9 17  2  0
 10 11  1  0
 11 12  2  0
 12 13  1  0
 13 14  2  0
 14 15  1  0
 15 16  2  0
 16 11  1  0
 17 18  1  0
 18  7  1  0
 19 20  1  0
 20  3  1  0
M  END
>  <enum_smi>  (59) 
COC1CCC(c2nc(Cc3ccccc3)n[nH]2)CC1

>  <std_smi>  (59) 
COC1CCC(c2nc(Cc3ccccc3)n[nH]2)CC1

>  <molecule_id>  (59) 
3192099

>  <enum_code>  (59) 
B

>  <codes>  (59) 
MolPort-016-621-059

>  <libraries>  (59) 
molport

>  <PH4_SCORE>  (59) 
-62.2673

>  <o3da_score>  (59) 
74.403580125554541

>  <o3da_score_rel>  (59) 
0.35241983367699498

>  <o3da_align>  (59) 
0.31722899876398569

$$$$
8831126
     RDKit          3D

 20 22  0  0  1  0  0  0  0  0999 V2000
   12.4153   -2.1217   24.8684 C   0  0  0  0  0  0  0  0  0  0  0  0
   13.2614   -0.9954   24.6754 O   0  0  0  0  0  0  0  0  0  0  0  0
   12.8504   -0.1498   23.5981 C   0  0  1  0  0  0  0  0  0  0  0  0
   12.8639   -0.9246   22.2776 C   0  0  0  0  0  0  0  0  0  0  0  0
   12.2453   -0.1306   21.1305 C   0  0  0  0  0  0  0  0  0  0  0  0
   10.8554    0.4385   21.4416 C   0  0  1  0  0  0  0  0  0  0  0  0
    9.7581   -0.5670   21.2549 C   0  0  0  0  0  0  0  0  0  0  0  0
    8.7755   -0.4888   20.3811 N   0  0  0  0  0  0  0  0  0  0  0  0
    8.0342   -1.6215   20.6185 C   0  0  0  0  0  0  0  0  0  0  0  0
    6.8105   -1.9511   19.8413 C   0  0  0  0  0  0  0  0  0  0  0  0
    6.1266   -0.6379   19.5418 C   0  0  0  0  0  0  0  0  0  0  0  0
    6.2752   -0.0254   18.2877 C   0  0  0  0  0  0  0  0  0  0  0  0
    5.6457    1.1896   18.0127 C   0  0  0  0  0  0  0  0  0  0  0  0
    4.8587    1.8042   18.9849 C   0  0  0  0  0  0  0  0  0  0  0  0
    4.6962    1.2028   20.2316 C   0  0  0  0  0  0  0  0  0  0  0  0
    5.3248   -0.0122   20.5091 C   0  0  0  0  0  0  0  0  0  0  0  0
    8.5444   -2.4268   21.5609 N   0  0  0  0  0  0  0  0  0  0  0  0
    9.6132   -1.7252   21.9667 N   0  0  0  0  0  0  0  0  0  0  0  0
   10.8064    1.1391   22.8052 C   0  0  0  0  0  0  0  0  0  0  0  0
   11.4393    0.3364   23.9370 C   0  0  0  0  0  0  0  0  0  0  0  0
  1  2  1  0
  3  2  1  1
  3  4  1  0
  4  5  1  0
  5  6  1  0
  6  7  1  1
  6 19  1  0
  7  8  2  0
  8  9  1  0
  9 10  1  0
  9 17  2  0
 10 11  1  0
 11 12  2  0
 12 13  1  0
 13 14  2  0
 14 15  1  0
 15 16  2  0
 16 11  1  0
 17 18  1  0
 18  7  1  0
 19 20  1  0
 20  3  1  0
M  END
>  <enum_smi>  (60) 
COC1CCC(c2nc(Cc3ccccc3)n[nH]2)CC1

>  <std_smi>  (60) 
COC1CCC(c2nc(Cc3ccccc3)n[nH]2)CC1

>  <molecule_id>  (60) 
3192099

>  <enum_code>  (60) 
B

>  <codes>  (60) 
MolPort-016-621-059

>  <libraries>  (60) 
molport

>  <PH4_SCORE>  (60) 
-62.2436

>  <o3da_score>  (60) 
76.552811899800901

>  <o3da_score_rel>  (60) 
0.36259988016313266

>  <o3da_align>  (60) 
0.59461031405945663

$$$$
8831872
     RDKit          3D

 18 20  0  0  1  0  0  0  0  0999 V2000
    8.6121   -0.8852   18.1482 C   0  0  0  0  0  0  0  0  0  0  0  0
    7.3801   -0.1725   18.6190 C   0  0  0  0  0  0  0  0  0  0  0  0
    6.6643    0.4678   17.6500 N   0  0  0  0  0  0  0  0  0  0  0  0
    5.5710    1.1409   18.0656 C   0  0  0  0  0  0  0  0  0  0  0  0
    5.1971    1.1920   19.3930 C   0  0  0  0  0  0  0  0  0  0  0  0
    5.8936    0.5664   20.3659 N   0  0  0  0  0  0  0  0  0  0  0  0
    6.9884   -0.1434   19.9680 C   0  0  0  0  0  0  0  0  0  0  0  0
    7.7118   -0.8029   21.0602 C   0  0  0  0  0  0  0  0  0  0  0  0
    8.2754   -2.0807   20.8794 C   0  0  0  0  0  0  0  0  0  0  0  0
    8.9800   -2.7288   21.9096 C   0  0  0  0  0  0  0  0  0  0  0  0
    9.1534   -2.1099   23.1470 C   0  0  0  0  0  0  0  0  0  0  0  0
    8.6080   -0.8519   23.3274 C   0  0  0  0  0  0  0  0  0  0  0  0
    7.9062   -0.2183   22.3074 C   0  0  0  0  0  0  0  0  0  0  0  0
    7.4722    1.0386   22.6597 O   0  0  0  0  0  0  0  0  0  0  0  0
    7.6661    1.0931   24.1010 C   0  0  2  0  0  0  0  0  0  0  0  0
    8.0106    2.5333   24.5129 C   0  0  0  0  0  0  0  0  0  0  0  0
    6.9631    3.5020   24.1765 N   0  0  0  0  0  0  0  0  0  0  0  0
    8.7191    0.0505   24.4981 C   0  0  0  0  0  0  0  0  0  0  0  0
  1  2  1  0
  2  3  2  0
  3  4  1  0
  4  5  2  0
  5  6  1  0
  6  7  2  0
  7  8  1  0
  7  2  1  0
  8  9  2  0
  9 10  1  0
 10 11  2  0
 11 12  1  0
 12 13  2  0
 13 14  1  0
 13  8  1  0
 14 15  1  0
 15 16  1  6
 15 18  1  0
 16 17  1  0
 18 12  1  0
M  END
>  <enum_smi>  (61) 
Cc1nccnc1-c1cccc2c1OC(CN)C2

>  <std_smi>  (61) 
Cc1nccnc1-c1cccc2c1OC(CN)C2

>  <molecule_id>  (61) 
3278172

>  <enum_code>  (61) 
B

>  <codes>  (61) 
MolPort-019-806-334

>  <libraries>  (61) 
molport

>  <PH4_SCORE>  (61) 
-62.5588

>  <o3da_score>  (61) 
75.072127562708943

>  <o3da_score_rel>  (61) 
0.35558647399469945

>  <o3da_align>  (61) 
0.29535432046247384

$$$$
8831872
     RDKit          3D

 18 20  0  0  1  0  0  0  0  0999 V2000
    5.3347   -0.5165   21.4477 C   0  0  0  0  0  0  0  0  0  0  0  0
    5.6577    0.1302   20.1343 C   0  0  0  0  0  0  0  0  0  0  0  0
    4.9041    1.2216   19.8148 N   0  0  0  0  0  0  0  0  0  0  0  0
    5.1627    1.7932   18.6200 C   0  0  0  0  0  0  0  0  0  0  0  0
    6.1249    1.3027   17.7609 C   0  0  0  0  0  0  0  0  0  0  0  0
    6.8791    0.2232   18.0590 N   0  0  0  0  0  0  0  0  0  0  0  0
    6.6553   -0.3569   19.2732 C   0  0  0  0  0  0  0  0  0  0  0  0
    7.4971   -1.5257   19.5497 C   0  0  0  0  0  0  0  0  0  0  0  0
    7.7271   -2.4961   18.5554 C   0  0  0  0  0  0  0  0  0  0  0  0
    8.5370   -3.6207   18.7954 C   0  0  0  0  0  0  0  0  0  0  0  0
    9.1518   -3.7993   20.0340 C   0  0  0  0  0  0  0  0  0  0  0  0
    8.9348   -2.8455   21.0117 C   0  0  0  0  0  0  0  0  0  0  0  0
    8.1275   -1.7386   20.7713 C   0  0  0  0  0  0  0  0  0  0  0  0
    8.0609   -0.8836   21.8469 O   0  0  0  0  0  0  0  0  0  0  0  0
    8.6374   -1.6448   22.9452 C   0  0  2  0  0  0  0  0  0  0  0  0
    9.3574   -0.6846   23.9054 C   0  0  0  0  0  0  0  0  0  0  0  0
   10.4674    0.0411   23.2806 N   0  0  0  0  0  0  0  0  0  0  0  0
    9.5294   -2.7504   22.3661 C   0  0  0  0  0  0  0  0  0  0  0  0
  1  2  1  0
  2  3  2  0
  3  4  1  0
  4  5  2  0
  5  6  1  0
  6  7  2  0
  7  8  1  0
  7  2  1  0
  8  9  2  0
  9 10  1  0
 10 11  2  0
 11 12  1  0
 12 13  2  0
 13 14  1  0
 13  8  1  0
 14 15  1  0
 15 16  1  1
 15 18  1  0
 16 17  1  0
 18 12  1  0
M  END
>  <enum_smi>  (62) 
Cc1nccnc1-c1cccc2c1OC(CN)C2

>  <std_smi>  (62) 
Cc1nccnc1-c1cccc2c1OC(CN)C2

>  <molecule_id>  (62) 
3278172

>  <enum_code>  (62) 
B

>  <codes>  (62) 
MolPort-019-806-334

>  <libraries>  (62) 
molport

>  <PH4_SCORE>  (62) 
-60.086

>  <o3da_score>  (62) 
76.316928383336929

>  <o3da_score_rel>  (62) 
0.36148259481881057

>  <o3da_align>  (62) 
0.62123973608695848

$$$$
8831872
     RDKit          3D

 18 20  0  0  1  0  0  0  0  0999 V2000
    5.2765    0.7034   21.7445 C   0  0  0  0  0  0  0  0  0  0  0  0
    5.8581    0.5617   20.3700 C   0  0  0  0  0  0  0  0  0  0  0  0
    5.1613    1.1750   19.3702 N   0  0  0  0  0  0  0  0  0  0  0  0
    5.6564    1.0274   18.1236 C   0  0  0  0  0  0  0  0  0  0  0  0
    6.7952    0.2920   17.8650 C   0  0  0  0  0  0  0  0  0  0  0  0
    7.4968   -0.3232   18.8407 N   0  0  0  0  0  0  0  0  0  0  0  0
    7.0317   -0.1667   20.1136 C   0  0  0  0  0  0  0  0  0  0  0  0
    7.8260   -0.8545   21.1369 C   0  0  0  0  0  0  0  0  0  0  0  0
    7.1962   -1.5592   22.1810 C   0  0  0  0  0  0  0  0  0  0  0  0
    7.9373   -2.2326   23.1685 C   0  0  0  0  0  0  0  0  0  0  0  0
    9.3312   -2.2323   23.1314 C   0  0  0  0  0  0  0  0  0  0  0  0
    9.9545   -1.5477   22.1040 C   0  0  0  0  0  0  0  0  0  0  0  0
    9.2169   -0.8776   21.1337 C   0  0  0  0  0  0  0  0  0  0  0  0
   10.0081   -0.2883   20.1750 O   0  0  0  0  0  0  0  0  0  0  0  0
   11.3508   -0.3479   20.7331 C   0  0  2  0  0  0  0  0  0  0  0  0
   12.3684   -0.5061   19.5921 C   0  0  0  0  0  0  0  0  0  0  0  0
   12.1497   -1.7056   18.7782 N   0  0  0  0  0  0  0  0  0  0  0  0
   11.3998   -1.4625   21.7860 C   0  0  0  0  0  0  0  0  0  0  0  0
  1  2  1  0
  2  3  2  0
  3  4  1  0
  4  5  2  0
  5  6  1  0
  6  7  2  0
  7  8  1  0
  7  2  1  0
  8  9  2  0
  9 10  1  0
 10 11  2  0
 11 12  1  0
 12 13  2  0
 13 14  1  0
 13  8  1  0
 14 15  1  0
 15 16  1  6
 15 18  1  0
 16 17  1  0
 18 12  1  0
M  END
>  <enum_smi>  (63) 
Cc1nccnc1-c1cccc2c1OC(CN)C2

>  <std_smi>  (63) 
Cc1nccnc1-c1cccc2c1OC(CN)C2

>  <molecule_id>  (63) 
3278172

>  <enum_code>  (63) 
B

>  <codes>  (63) 
MolPort-019-806-334

>  <libraries>  (63) 
molport

>  <PH4_SCORE>  (63) 
-59.8864

>  <o3da_score>  (63) 
68.034990574145809

>  <o3da_score_rel>  (63) 
0.32225438644075843

>  <o3da_align>  (63) 
0.27182934715554286

$$$$
8831872
     RDKit          3D

 18 20  0  0  1  0  0  0  0  0999 V2000
    8.6120   -0.8853   18.1482 C   0  0  0  0  0  0  0  0  0  0  0  0
    7.3801   -0.1725   18.6191 C   0  0  0  0  0  0  0  0  0  0  0  0
    6.6643    0.4678   17.6500 N   0  0  0  0  0  0  0  0  0  0  0  0
    5.5710    1.1409   18.0655 C   0  0  0  0  0  0  0  0  0  0  0  0
    5.1972    1.1921   19.3931 C   0  0  0  0  0  0  0  0  0  0  0  0
    5.8936    0.5664   20.3659 N   0  0  0  0  0  0  0  0  0  0  0  0
    6.9884   -0.1434   19.9680 C   0  0  0  0  0  0  0  0  0  0  0  0
    7.7118   -0.8029   21.0602 C   0  0  0  0  0  0  0  0  0  0  0  0
    8.2755   -2.0807   20.8794 C   0  0  0  0  0  0  0  0  0  0  0  0
    8.9801   -2.7287   21.9096 C   0  0  0  0  0  0  0  0  0  0  0  0
    9.1534   -2.1100   23.1471 C   0  0  0  0  0  0  0  0  0  0  0  0
    8.6079   -0.8520   23.3276 C   0  0  0  0  0  0  0  0  0  0  0  0
    7.9060   -0.2183   22.3074 C   0  0  0  0  0  0  0  0  0  0  0  0
    7.4718    1.0385   22.6598 O   0  0  0  0  0  0  0  0  0  0  0  0
    7.6657    1.0929   24.1012 C   0  0  2  0  0  0  0  0  0  0  0  0
    8.0101    2.5330   24.5132 C   0  0  0  0  0  0  0  0  0  0  0  0
    6.9619    3.5016   24.1781 N   0  0  0  0  0  0  0  0  0  0  0  0
    8.7187    0.0504   24.4982 C   0  0  0  0  0  0  0  0  0  0  0  0
  1  2  1  0
  2  3  2  0
  3  4  1  0
  4  5  2  0
  5  6  1  0
  6  7  2  0
  7  8  1  0
  7  2  1  0
  8  9  2  0
  9 10  1  0
 10 11  2  0
 11 12  1  0
 12 13  2  0
 13 14  1  0
 13  8  1  0
 14 15  1  0
 15 16  1  6
 15 18  1  0
 16 17  1  0
 18 12  1  0
M  END
>  <enum_smi>  (64) 
Cc1nccnc1-c1cccc2c1OC(CN)C2

>  <std_smi>  (64) 
Cc1nccnc1-c1cccc2c1OC(CN)C2

>  <molecule_id>  (64) 
3278172

>  <enum_code>  (64) 
B

>  <codes>  (64) 
MolPort-019-806-334

>  <libraries>  (64) 
molport

>  <PH4_SCORE>  (64) 
-59.73

>  <o3da_score>  (64) 
75.071908910353343

>  <o3da_score_rel>  (64) 
0.35558543832643369

>  <o3da_align>  (64) 
0.29536506498278697

$$$$
8831872
     RDKit          3D

 18 20  0  0  1  0  0  0  0  0999 V2000
    8.6120   -0.8853   18.1482 C   0  0  0  0  0  0  0  0  0  0  0  0
    7.3800   -0.1725   18.6190 C   0  0  0  0  0  0  0  0  0  0  0  0
    6.6643    0.4678   17.6500 N   0  0  0  0  0  0  0  0  0  0  0  0
    5.5711    1.1409   18.0655 C   0  0  0  0  0  0  0  0  0  0  0  0
    5.1972    1.1921   19.3931 C   0  0  0  0  0  0  0  0  0  0  0  0
    5.8936    0.5664   20.3659 N   0  0  0  0  0  0  0  0  0  0  0  0
    6.9884   -0.1434   19.9680 C   0  0  0  0  0  0  0  0  0  0  0  0
    7.7118   -0.8029   21.0602 C   0  0  0  0  0  0  0  0  0  0  0  0
    8.2755   -2.0807   20.8794 C   0  0  0  0  0  0  0  0  0  0  0  0
    8.9802   -2.7288   21.9096 C   0  0  0  0  0  0  0  0  0  0  0  0
    9.1533   -2.1100   23.1471 C   0  0  0  0  0  0  0  0  0  0  0  0
    8.6078   -0.8521   23.3276 C   0  0  0  0  0  0  0  0  0  0  0  0
    7.9059   -0.2184   22.3075 C   0  0  0  0  0  0  0  0  0  0  0  0
    7.4716    1.0384   22.6600 O   0  0  0  0  0  0  0  0  0  0  0  0
    7.6655    1.0927   24.1013 C   0  0  2  0  0  0  0  0  0  0  0  0
    8.0097    2.5328   24.5134 C   0  0  0  0  0  0  0  0  0  0  0  0
    9.1972    3.0644   23.8379 N   0  0  0  0  0  0  0  0  0  0  0  0
    8.7185    0.0501   24.4983 C   0  0  0  0  0  0  0  0  0  0  0  0
  1  2  1  0
  2  3  2  0
  3  4  1  0
  4  5  2  0
  5  6  1  0
  6  7  2  0
  7  8  1  0
  7  2  1  0
  8  9  2  0
  9 10  1  0
 10 11  2  0
 11 12  1  0
 12 13  2  0
 13 14  1  0
 13  8  1  0
 14 15  1  0
 15 16  1  6
 15 18  1  0
 16 17  1  0
 18 12  1  0
M  END
>  <enum_smi>  (65) 
Cc1nccnc1-c1cccc2c1OC(CN)C2

>  <std_smi>  (65) 
Cc1nccnc1-c1cccc2c1OC(CN)C2

>  <molecule_id>  (65) 
3278172

>  <enum_code>  (65) 
B

>  <codes>  (65) 
MolPort-019-806-334

>  <libraries>  (65) 
molport

>  <PH4_SCORE>  (65) 
-59.4105

>  <o3da_score>  (65) 
75.071631128988727

>  <o3da_score_rel>  (65) 
0.35558412258783417

>  <o3da_align>  (65) 
0.29537811249314511

$$$$
8831973
     RDKit          3D

 20 21  0  0  0  0  0  0  0  0999 V2000
    9.6920    1.3870   21.5156 C   0  0  0  0  0  0  0  0  0  0  0  0
    9.2418   -0.0382   21.5827 C   0  0  0  0  0  0  0  0  0  0  0  0
    9.5097   -0.7231   22.7079 N   0  0  0  0  0  0  0  0  0  0  0  0
    9.1208   -2.0120   22.7396 C   0  0  0  0  0  0  0  0  0  0  0  0
    9.4577   -2.8205   23.9687 C   0  0  0  0  0  0  0  0  0  0  0  0
   10.6908   -2.2861   24.7043 C   0  0  0  0  0  0  0  0  0  0  0  0
   10.4907   -0.8963   25.1269 N   0  0  0  0  0  0  0  0  0  0  0  0
    8.4993   -2.6126   21.6606 C   0  0  0  0  0  0  0  0  0  0  0  0
    8.2544   -1.8366   20.5391 C   0  0  0  0  0  0  0  0  0  0  0  0
    7.6202   -2.4335   19.4198 N   0  0  0  0  0  0  0  0  0  0  0  0
    8.0447   -3.8284   19.2361 C   0  0  0  0  0  0  0  0  0  0  0  0
    7.8099   -1.5948   18.2129 C   0  0  0  0  0  0  0  0  0  0  0  0
    6.5058   -0.9860   17.7124 C   0  0  0  0  0  0  0  0  0  0  0  0
    6.4940    0.3724   17.5973 N   0  0  0  0  0  0  0  0  0  0  0  0
    5.3662    0.9579   17.1439 C   0  0  0  0  0  0  0  0  0  0  0  0
    4.2290    0.2595   16.7898 C   0  0  0  0  0  0  0  0  0  0  0  0
    4.2472   -1.1249   16.9086 C   0  0  0  0  0  0  0  0  0  0  0  0
    5.3937   -1.7757   17.3820 C   0  0  0  0  0  0  0  0  0  0  0  0
    5.4109   -3.2726   17.4773 C   0  0  0  0  0  0  0  0  0  0  0  0
    8.6377   -0.5494   20.4958 N   0  0  0  0  0  0  0  0  0  0  0  0
  1  2  1  0
  2  3  2  0
  3  4  1  0
  4  5  1  0
  4  8  2  0
  5  6  1  0
  6  7  1  0
  8  9  1  0
  9 10  1  0
  9 20  2  0
 10 11  1  0
 10 12  1  0
 12 13  1  0
 13 14  2  0
 14 15  1  0
 15 16  2  0
 16 17  1  0
 17 18  2  0
 18 19  1  0
 18 13  1  0
 20  2  1  0
M  END
>  <enum_smi>  (66) 
Cc1nc(CCN)cc(N(C)Cc2ncccc2C)n1

>  <std_smi>  (66) 
Cc1nc(CCN)cc(N(C)Cc2ncccc2C)n1

>  <molecule_id>  (66) 
3278996

>  <enum_code>  (66) 
B

>  <codes>  (66) 
MolPort-019-807-467

>  <libraries>  (66) 
molport

>  <PH4_SCORE>  (66) 
-57.3097

>  <o3da_score>  (66) 
77.305849909333432

>  <o3da_score_rel>  (66) 
0.36616671833979136

>  <o3da_align>  (66) 
0.40158353230910188

$$$$
8831973
     RDKit          3D

 20 21  0  0  0  0  0  0  0  0999 V2000
    6.6235    1.4622   20.3267 C   0  0  0  0  0  0  0  0  0  0  0  0
    7.0083    0.0521   20.0074 C   0  0  0  0  0  0  0  0  0  0  0  0
    6.5298   -0.4812   18.8702 N   0  0  0  0  0  0  0  0  0  0  0  0
    6.8648   -1.7599   18.6130 C   0  0  0  0  0  0  0  0  0  0  0  0
    6.2964   -2.4018   17.3709 C   0  0  0  0  0  0  0  0  0  0  0  0
    4.9671   -1.7739   16.9399 C   0  0  0  0  0  0  0  0  0  0  0  0
    5.1252   -0.3421   16.6660 N   0  0  0  0  0  0  0  0  0  0  0  0
    7.6411   -2.4997   19.4853 C   0  0  0  0  0  0  0  0  0  0  0  0
    8.0995   -1.8752   20.6342 C   0  0  0  0  0  0  0  0  0  0  0  0
    8.8954   -2.6165   21.5442 N   0  0  0  0  0  0  0  0  0  0  0  0
    8.4628   -4.0187   21.6255 C   0  0  0  0  0  0  0  0  0  0  0  0
    8.9423   -1.9361   22.8598 C   0  0  0  0  0  0  0  0  0  0  0  0
   10.3299   -1.4018   23.1932 C   0  0  0  0  0  0  0  0  0  0  0  0
   11.3625   -2.2662   22.9804 N   0  0  0  0  0  0  0  0  0  0  0  0
   12.6126   -1.8344   23.2469 C   0  0  0  0  0  0  0  0  0  0  0  0
   12.9022   -0.5697   23.7195 C   0  0  0  0  0  0  0  0  0  0  0  0
   11.8457    0.3070   23.9339 C   0  0  0  0  0  0  0  0  0  0  0  0
   10.5300   -0.1002   23.6781 C   0  0  0  0  0  0  0  0  0  0  0  0
    9.4011    0.8656   23.8851 C   0  0  0  0  0  0  0  0  0  0  0  0
    7.7719   -0.5998   20.9015 N   0  0  0  0  0  0  0  0  0  0  0  0
  1  2  1  0
  2  3  2  0
  3  4  1  0
  4  5  1  0
  4  8  2  0
  5  6  1  0
  6  7  1  0
  8  9  1  0
  9 10  1  0
  9 20  2  0
 10 11  1  0
 10 12  1  0
 12 13  1  0
 13 14  2  0
 14 15  1  0
 15 16  2  0
 16 17  1  0
 17 18  2  0
 18 19  1  0
 18 13  1  0
 20  2  1  0
M  END
>  <enum_smi>  (67) 
Cc1nc(CCN)cc(N(C)Cc2ncccc2C)n1

>  <std_smi>  (67) 
Cc1nc(CCN)cc(N(C)Cc2ncccc2C)n1

>  <molecule_id>  (67) 
3278996

>  <enum_code>  (67) 
B

>  <codes>  (67) 
MolPort-019-807-467

>  <libraries>  (67) 
molport

>  <PH4_SCORE>  (67) 
-56.9229

>  <o3da_score>  (67) 
77.126009366497399

>  <o3da_score_rel>  (67) 
0.36531488602086659

>  <o3da_align>  (67) 
0.26201477810973056

$$$$
8831973
     RDKit          3D

 20 21  0  0  0  0  0  0  0  0999 V2000
    5.8325    1.5185   24.0409 C   0  0  0  0  0  0  0  0  0  0  0  0
    6.1185    0.9356   22.6930 C   0  0  0  0  0  0  0  0  0  0  0  0
    5.2619    1.2208   21.6972 N   0  0  0  0  0  0  0  0  0  0  0  0
    5.5207    0.6655   20.4979 C   0  0  0  0  0  0  0  0  0  0  0  0
    4.5452    0.9237   19.3756 C   0  0  0  0  0  0  0  0  0  0  0  0
    3.0856    0.8087   19.8270 C   0  0  0  0  0  0  0  0  0  0  0  0
    2.7981    1.7401   20.9224 N   0  0  0  0  0  0  0  0  0  0  0  0
    6.5988   -0.1776   20.3024 C   0  0  0  0  0  0  0  0  0  0  0  0
    7.4377   -0.4173   21.3787 C   0  0  0  0  0  0  0  0  0  0  0  0
    8.5483   -1.2812   21.2008 N   0  0  0  0  0  0  0  0  0  0  0  0
    8.2325   -2.3897   20.2890 C   0  0  0  0  0  0  0  0  0  0  0  0
    9.0691   -1.7274   22.5144 C   0  0  0  0  0  0  0  0  0  0  0  0
   10.4810   -1.2232   22.7863 C   0  0  0  0  0  0  0  0  0  0  0  0
   10.5681   -0.0786   23.5219 N   0  0  0  0  0  0  0  0  0  0  0  0
   11.7981    0.3999   23.8018 C   0  0  0  0  0  0  0  0  0  0  0  0
   12.9684   -0.2043   23.3873 C   0  0  0  0  0  0  0  0  0  0  0  0
   12.8733   -1.3710   22.6384 C   0  0  0  0  0  0  0  0  0  0  0  0
   11.6170   -1.9007   22.3172 C   0  0  0  0  0  0  0  0  0  0  0  0
   11.5283   -3.1768   21.5338 C   0  0  0  0  0  0  0  0  0  0  0  0
    7.1897    0.1311   22.5800 N   0  0  0  0  0  0  0  0  0  0  0  0
  1  2  1  0
  2  3  2  0
  3  4  1  0
  4  5  1  0
  4  8  2  0
  5  6  1  0
  6  7  1  0
  8  9  1  0
  9 10  1  0
  9 20  2  0
 10 11  1  0
 10 12  1  0
 12 13  1  0
 13 14  2  0
 14 15  1  0
 15 16  2  0
 16 17  1  0
 17 18  2  0
 18 19  1  0
 18 13  1  0
 20  2  1  0
M  END
>  <enum_smi>  (68) 
Cc1nc(CCN)cc(N(C)Cc2ncccc2C)n1

>  <std_smi>  (68) 
Cc1nc(CCN)cc(N(C)Cc2ncccc2C)n1

>  <molecule_id>  (68) 
3278996

>  <enum_code>  (68) 
B

>  <codes>  (68) 
MolPort-019-807-467

>  <libraries>  (68) 
molport

>  <PH4_SCORE>  (68) 
-56.7153

>  <o3da_score>  (68) 
80.663743575859826

>  <o3da_score_rel>  (68) 
0.38207171008165808

>  <o3da_align>  (68) 
0.49683663563517388

$$$$
8831973
     RDKit          3D

 20 21  0  0  0  0  0  0  0  0999 V2000
    6.4300   -2.2037   17.3497 C   0  0  0  0  0  0  0  0  0  0  0  0
    7.0832   -1.5559   18.5297 C   0  0  0  0  0  0  0  0  0  0  0  0
    7.1102   -0.2126   18.5663 N   0  0  0  0  0  0  0  0  0  0  0  0
    7.7257    0.3524   19.6224 C   0  0  0  0  0  0  0  0  0  0  0  0
    7.8195    1.8582   19.6619 C   0  0  0  0  0  0  0  0  0  0  0  0
    8.9181    2.3544   20.6074 C   0  0  0  0  0  0  0  0  0  0  0  0
   10.2351    1.8661   20.1870 N   0  0  0  0  0  0  0  0  0  0  0  0
    8.3242   -0.4080   20.6098 C   0  0  0  0  0  0  0  0  0  0  0  0
    8.2481   -1.7873   20.5013 C   0  0  0  0  0  0  0  0  0  0  0  0
    8.8574   -2.5864   21.5020 N   0  0  0  0  0  0  0  0  0  0  0  0
    8.4208   -3.9872   21.4177 C   0  0  0  0  0  0  0  0  0  0  0  0
    8.6504   -1.9829   22.8395 C   0  0  0  0  0  0  0  0  0  0  0  0
    9.9490   -1.4918   23.4674 C   0  0  0  0  0  0  0  0  0  0  0  0
   10.5192   -0.4058   22.8723 N   0  0  0  0  0  0  0  0  0  0  0  0
   11.6633    0.0760   23.4009 C   0  0  0  0  0  0  0  0  0  0  0  0
   12.2845   -0.4673   24.5079 C   0  0  0  0  0  0  0  0  0  0  0  0
   11.6983   -1.5738   25.1105 C   0  0  0  0  0  0  0  0  0  0  0  0
   10.5141   -2.1130   24.5918 C   0  0  0  0  0  0  0  0  0  0  0  0
    9.8754   -3.2890   25.2694 C   0  0  0  0  0  0  0  0  0  0  0  0
    7.6365   -2.3623   19.4522 N   0  0  0  0  0  0  0  0  0  0  0  0
  1  2  1  0
  2  3  2  0
  3  4  1  0
  4  5  1  0
  4  8  2  0
  5  6  1  0
  6  7  1  0
  8  9  1  0
  9 10  1  0
  9 20  2  0
 10 11  1  0
 10 12  1  0
 12 13  1  0
 13 14  2  0
 14 15  1  0
 15 16  2  0
 16 17  1  0
 17 18  2  0
 18 19  1  0
 18 13  1  0
 20  2  1  0
M  END
>  <enum_smi>  (69) 
Cc1nc(CCN)cc(N(C)Cc2ncccc2C)n1

>  <std_smi>  (69) 
Cc1nc(CCN)cc(N(C)Cc2ncccc2C)n1

>  <molecule_id>  (69) 
3278996

>  <enum_code>  (69) 
B

>  <codes>  (69) 
MolPort-019-807-467

>  <libraries>  (69) 
molport

>  <PH4_SCORE>  (69) 
-55.8473

>  <o3da_score>  (69) 
69.639665381158594

>  <o3da_score_rel>  (69) 
0.32985508559580995

>  <o3da_align>  (69) 
0.41110342610782286

$$$$
8831973
     RDKit          3D

 20 21  0  0  0  0  0  0  0  0999 V2000
    6.4995    1.4779   20.4771 C   0  0  0  0  0  0  0  0  0  0  0  0
    6.8612    0.0705   20.1207 C   0  0  0  0  0  0  0  0  0  0  0  0
    6.2859   -0.4625   19.0290 N   0  0  0  0  0  0  0  0  0  0  0  0
    6.6028   -1.7388   18.7393 C   0  0  0  0  0  0  0  0  0  0  0  0
    5.9292   -2.3806   17.5509 C   0  0  0  0  0  0  0  0  0  0  0  0
    4.4865   -1.9006   17.3626 C   0  0  0  0  0  0  0  0  0  0  0  0
    3.6710   -2.2076   18.5418 N   0  0  0  0  0  0  0  0  0  0  0  0
    7.4576   -2.4768   19.5368 C   0  0  0  0  0  0  0  0  0  0  0  0
    8.0133   -1.8528   20.6422 C   0  0  0  0  0  0  0  0  0  0  0  0
    8.8909   -2.5922   21.4754 N   0  0  0  0  0  0  0  0  0  0  0  0
    8.4740   -3.9967   21.5909 C   0  0  0  0  0  0  0  0  0  0  0  0
    9.0517   -1.9146   22.7835 C   0  0  0  0  0  0  0  0  0  0  0  0
   10.4553   -1.3571   22.9852 C   0  0  0  0  0  0  0  0  0  0  0  0
   10.5215   -0.0882   23.4793 N   0  0  0  0  0  0  0  0  0  0  0  0
   11.7430    0.4447   23.6895 C   0  0  0  0  0  0  0  0  0  0  0  0
   12.9247   -0.2226   23.4342 C   0  0  0  0  0  0  0  0  0  0  0  0
   12.8508   -1.5158   22.9313 C   0  0  0  0  0  0  0  0  0  0  0  0
   11.6042   -2.1072   22.6903 C   0  0  0  0  0  0  0  0  0  0  0  0
   11.5378   -3.5146   22.1756 C   0  0  0  0  0  0  0  0  0  0  0  0
    7.7046   -0.5797   20.9414 N   0  0  0  0  0  0  0  0  0  0  0  0
  1  2  1  0
  2  3  2  0
  3  4  1  0
  4  5  1  0
  4  8  2  0
  5  6  1  0
  6  7  1  0
  8  9  1  0
  9 10  1  0
  9 20  2  0
 10 11  1  0
 10 12  1  0
 12 13  1  0
 13 14  2  0
 14 15  1  0
 15 16  2  0
 16 17  1  0
 17 18  2  0
 18 19  1  0
 18 13  1  0
 20  2  1  0
M  END
>  <enum_smi>  (70) 
Cc1nc(CCN)cc(N(C)Cc2ncccc2C)n1

>  <std_smi>  (70) 
Cc1nc(CCN)cc(N(C)Cc2ncccc2C)n1

>  <molecule_id>  (70) 
3278996

>  <enum_code>  (70) 
B

>  <codes>  (70) 
MolPort-019-807-467

>  <libraries>  (70) 
molport

>  <PH4_SCORE>  (70) 
-54.8377

>  <o3da_score>  (70) 
88.281010089947259

>  <o3da_score_rel>  (70) 
0.41815163786790222

>  <o3da_align>  (70) 
0.36270399148851079

$$$$
8833048
     RDKit          3D

 19 21  0  0  1  0  0  0  0  0999 V2000
   13.8644   -4.2546   24.1793 C   0  0  0  0  0  0  0  0  0  0  0  0
   13.7960   -2.7384   24.1498 C   0  0  0  0  0  0  0  0  0  0  0  0
   12.5864   -2.2583   23.5116 N   0  0  0  0  0  0  0  0  0  0  0  0
   11.3048   -2.5339   23.8815 C   0  0  0  0  0  0  0  0  0  0  0  0
   10.4850   -1.8818   22.9794 C   0  0  0  0  0  0  0  0  0  0  0  0
    8.9814   -1.8513   22.9333 C   0  0  2  0  0  0  0  0  0  0  0  0
    8.4313   -2.6273   21.7154 C   0  0  0  0  0  0  0  0  0  0  0  0
    8.2198   -1.7335   20.5109 C   0  0  0  0  0  0  0  0  0  0  0  0
    8.2289   -2.3878   19.3405 O   0  0  0  0  0  0  0  0  0  0  0  0
    7.9713   -0.4615   20.4893 N   0  0  0  0  0  0  0  0  0  0  0  0
    8.0030    0.0972   21.7242 C   0  0  0  0  0  0  0  0  0  0  0  0
    8.4522   -0.4625   22.8994 C   0  0  0  0  0  0  0  0  0  0  0  0
    8.2836    0.5314   23.8749 C   0  0  0  0  0  0  0  0  0  0  0  0
    7.7540    1.6492   23.3656 N   0  0  0  0  0  0  0  0  0  0  0  0
    7.6047    1.3654   22.0492 N   0  0  0  0  0  0  0  0  0  0  0  0
    7.0644    2.3692   21.1677 C   0  0  0  0  0  0  0  0  0  0  0  0
   11.3955   -1.2242   22.1019 C   0  0  0  0  0  0  0  0  0  0  0  0
   11.0844   -0.3633   20.9332 C   0  0  0  0  0  0  0  0  0  0  0  0
   12.6696   -1.4577   22.4368 N   0  0  0  0  0  0  0  0  0  0  0  0
  1  2  1  0
  2  3  1  0
  3  4  1  0
  4  5  2  0
  5 17  1  0
  6  5  1  6
  6  7  1  0
  7  8  1  0
  8  9  1  0
  8 10  2  0
 10 11  1  0
 11 12  2  0
 12 13  1  0
 12  6  1  0
 13 14  2  0
 14 15  1  0
 15 16  1  0
 15 11  1  0
 17 18  1  0
 17 19  2  0
 19  3  1  0
M  END
>  <enum_smi>  (71) 
CCn1cc(C2CC(O)=Nc3c2cnn3C)c(C)n1

>  <std_smi>  (71) 
CCn1cc(C2CC(O)=Nc3c2cnn3C)c(C)n1

>  <molecule_id>  (71) 
3267265

>  <enum_code>  (71) 
B

>  <codes>  (71) 
MolPort-019-793-251

>  <libraries>  (71) 
molport

>  <PH4_SCORE>  (71) 
-61.7965

>  <o3da_score>  (71) 
63.908459298360718

>  <o3da_score_rel>  (71) 
0.30270866749254322

>  <o3da_align>  (71) 
0.37778147063247547

$$$$
8833048
     RDKit          3D

 19 21  0  0  1  0  0  0  0  0999 V2000
   14.0511   -1.6615   20.4617 C   0  0  0  0  0  0  0  0  0  0  0  0
   13.9019   -1.1291   21.8755 C   0  0  0  0  0  0  0  0  0  0  0  0
   12.6566   -1.5469   22.4883 N   0  0  0  0  0  0  0  0  0  0  0  0
   11.3981   -1.2843   22.0384 C   0  0  0  0  0  0  0  0  0  0  0  0
   10.5271   -1.8590   22.9452 C   0  0  0  0  0  0  0  0  0  0  0  0
    9.0227   -1.8685   22.9213 C   0  0  2  0  0  0  0  0  0  0  0  0
    8.4756   -2.6419   21.7005 C   0  0  0  0  0  0  0  0  0  0  0  0
    8.2221   -1.7373   20.5122 C   0  0  0  0  0  0  0  0  0  0  0  0
    8.2313   -2.3746   19.3325 O   0  0  0  0  0  0  0  0  0  0  0  0
    7.9392   -0.4723   20.5127 N   0  0  0  0  0  0  0  0  0  0  0  0
    7.9744    0.0695   21.7550 C   0  0  0  0  0  0  0  0  0  0  0  0
    8.4560   -0.4943   22.9152 C   0  0  0  0  0  0  0  0  0  0  0  0
    8.2753    0.4810   23.9074 C   0  0  0  0  0  0  0  0  0  0  0  0
    7.7083    1.5909   23.4221 N   0  0  0  0  0  0  0  0  0  0  0  0
    7.5470    1.3219   22.1040 N   0  0  0  0  0  0  0  0  0  0  0  0
    6.9668    2.3229   21.2451 C   0  0  0  0  0  0  0  0  0  0  0  0
   11.3854   -2.4607   23.9109 C   0  0  0  0  0  0  0  0  0  0  0  0
   11.0069   -3.2299   25.1229 C   0  0  0  0  0  0  0  0  0  0  0  0
   12.6773   -2.2673   23.6213 N   0  0  0  0  0  0  0  0  0  0  0  0
  1  2  1  0
  2  3  1  0
  3  4  1  0
  4  5  2  0
  5 17  1  0
  6  5  1  6
  6  7  1  0
  7  8  1  0
  8  9  1  0
  8 10  2  0
 10 11  1  0
 11 12  2  0
 12 13  1  0
 12  6  1  0
 13 14  2  0
 14 15  1  0
 15 16  1  0
 15 11  1  0
 17 18  1  0
 17 19  2  0
 19  3  1  0
M  END
>  <enum_smi>  (72) 
CCn1cc(C2CC(O)=Nc3c2cnn3C)c(C)n1

>  <std_smi>  (72) 
CCn1cc(C2CC(O)=Nc3c2cnn3C)c(C)n1

>  <molecule_id>  (72) 
3267265

>  <enum_code>  (72) 
B

>  <codes>  (72) 
MolPort-019-793-251

>  <libraries>  (72) 
molport

>  <PH4_SCORE>  (72) 
-61.3301

>  <o3da_score>  (72) 
66.422681480736273

>  <o3da_score_rel>  (72) 
0.31461752674158194

>  <o3da_align>  (72) 
0.37890512133426074

$$$$
8833048
     RDKit          3D

 19 21  0  0  1  0  0  0  0  0999 V2000
   12.7848    1.2489   25.3482 C   0  0  0  0  0  0  0  0  0  0  0  0
   12.6925    1.1969   23.8339 C   0  0  0  0  0  0  0  0  0  0  0  0
   11.9252    0.0573   23.3719 N   0  0  0  0  0  0  0  0  0  0  0  0
   10.5948   -0.1619   23.5642 C   0  0  0  0  0  0  0  0  0  0  0  0
   10.3052   -1.3762   22.9702 C   0  0  0  0  0  0  0  0  0  0  0  0
    8.9813   -2.0866   22.8890 C   0  0  2  0  0  0  0  0  0  0  0  0
    8.7840   -2.7722   21.5182 C   0  0  0  0  0  0  0  0  0  0  0  0
    8.0639   -1.8813   20.5272 C   0  0  0  0  0  0  0  0  0  0  0  0
    8.2962   -2.1964   19.2447 O   0  0  0  0  0  0  0  0  0  0  0  0
    7.2235   -0.9251   20.7710 N   0  0  0  0  0  0  0  0  0  0  0  0
    7.0787   -0.6834   22.0972 C   0  0  0  0  0  0  0  0  0  0  0  0
    7.8390   -1.1683   23.1377 C   0  0  0  0  0  0  0  0  0  0  0  0
    7.2859   -0.6063   24.2981 C   0  0  0  0  0  0  0  0  0  0  0  0
    6.2370    0.1775   24.0248 N   0  0  0  0  0  0  0  0  0  0  0  0
    6.1385    0.1263   22.6743 N   0  0  0  0  0  0  0  0  0  0  0  0
    5.1056    0.8827   22.0129 C   0  0  0  0  0  0  0  0  0  0  0  0
   11.5546   -1.8013   22.4321 C   0  0  0  0  0  0  0  0  0  0  0  0
   11.8532   -3.0424   21.6742 C   0  0  0  0  0  0  0  0  0  0  0  0
   12.5312   -0.9209   22.6797 N   0  0  0  0  0  0  0  0  0  0  0  0
  1  2  1  0
  2  3  1  0
  3  4  1  0
  4  5  2  0
  5 17  1  0
  6  5  1  6
  6  7  1  0
  7  8  1  0
  8  9  1  0
  8 10  2  0
 10 11  1  0
 11 12  2  0
 12 13  1  0
 12  6  1  0
 13 14  2  0
 14 15  1  0
 15 16  1  0
 15 11  1  0
 17 18  1  0
 17 19  2  0
 19  3  1  0
M  END
>  <enum_smi>  (73) 
CCn1cc(C2CC(O)=Nc3c2cnn3C)c(C)n1

>  <std_smi>  (73) 
CCn1cc(C2CC(O)=Nc3c2cnn3C)c(C)n1

>  <molecule_id>  (73) 
3267265

>  <enum_code>  (73) 
B

>  <codes>  (73) 
MolPort-019-793-251

>  <libraries>  (73) 
molport

>  <PH4_SCORE>  (73) 
-60.232

>  <o3da_score>  (73) 
79.623403073903404

>  <o3da_score_rel>  (73) 
0.37714403555244552

>  <o3da_align>  (73) 
0.36127292156152302

$$$$
8833048
     RDKit          3D

 19 21  0  0  1  0  0  0  0  0999 V2000
    5.4540    2.6754   18.4479 C   0  0  0  0  0  0  0  0  0  0  0  0
    5.7290    1.2119   18.1525 C   0  0  0  0  0  0  0  0  0  0  0  0
    6.7549    0.6632   19.0169 N   0  0  0  0  0  0  0  0  0  0  0  0
    7.1575   -0.6364   19.0814 C   0  0  0  0  0  0  0  0  0  0  0  0
    8.1383   -0.6977   20.0536 C   0  0  0  0  0  0  0  0  0  0  0  0
    8.9195   -1.8957   20.5211 C   0  0  2  0  0  0  0  0  0  0  0  0
    8.3334   -2.4876   21.8226 C   0  0  0  0  0  0  0  0  0  0  0  0
    8.9869   -1.9125   23.0621 C   0  0  0  0  0  0  0  0  0  0  0  0
    8.2278   -1.9945   24.1643 O   0  0  0  0  0  0  0  0  0  0  0  0
   10.1830   -1.4287   23.1876 N   0  0  0  0  0  0  0  0  0  0  0  0
   10.8518   -1.3790   22.0094 C   0  0  0  0  0  0  0  0  0  0  0  0
   10.3544   -1.5752   20.7405 C   0  0  0  0  0  0  0  0  0  0  0  0
   11.4476   -1.3977   19.8793 C   0  0  0  0  0  0  0  0  0  0  0  0
   12.5718   -1.1166   20.5473 N   0  0  0  0  0  0  0  0  0  0  0  0
   12.1806   -1.0965   21.8444 N   0  0  0  0  0  0  0  0  0  0  0  0
   13.1497   -0.8023   22.8694 C   0  0  0  0  0  0  0  0  0  0  0  0
    8.2553    0.6481   20.5081 C   0  0  0  0  0  0  0  0  0  0  0  0
    9.1629    1.1895   21.5507 C   0  0  0  0  0  0  0  0  0  0  0  0
    7.4119    1.4668   19.8688 N   0  0  0  0  0  0  0  0  0  0  0  0
  1  2  1  0
  2  3  1  0
  3  4  1  0
  4  5  2  0
  5 17  1  0
  6  5  1  1
  6  7  1  0
  7  8  1  0
  8  9  1  0
  8 10  2  0
 10 11  1  0
 11 12  2  0
 12 13  1  0
 12  6  1  0
 13 14  2  0
 14 15  1  0
 15 16  1  0
 15 11  1  0
 17 18  1  0
 17 19  2  0
 19  3  1  0
M  END
>  <enum_smi>  (74) 
CCn1cc(C2CC(O)=Nc3c2cnn3C)c(C)n1

>  <std_smi>  (74) 
CCn1cc(C2CC(O)=Nc3c2cnn3C)c(C)n1

>  <molecule_id>  (74) 
3267265

>  <enum_code>  (74) 
B

>  <codes>  (74) 
MolPort-019-793-251

>  <libraries>  (74) 
molport

>  <PH4_SCORE>  (74) 
-59.3196

>  <o3da_score>  (74) 
73.690089091570243

>  <o3da_score_rel>  (74) 
0.3490403136175777

>  <o3da_align>  (74) 
0.57353937237588715

$$$$
8833048
     RDKit          3D

 19 21  0  0  1  0  0  0  0  0999 V2000
   12.1841    2.7449   23.1716 C   0  0  0  0  0  0  0  0  0  0  0  0
   12.6074    1.5280   23.9743 C   0  0  0  0  0  0  0  0  0  0  0  0
   11.9315    0.3227   23.5370 N   0  0  0  0  0  0  0  0  0  0  0  0
   10.5991    0.0557   23.6299 C   0  0  0  0  0  0  0  0  0  0  0  0
   10.4134   -1.2111   23.1084 C   0  0  0  0  0  0  0  0  0  0  0  0
    9.1320   -1.9871   22.9680 C   0  0  2  0  0  0  0  0  0  0  0  0
    9.0066   -2.6352   21.5709 C   0  0  0  0  0  0  0  0  0  0  0  0
    8.2653   -1.7503   20.5901 C   0  0  0  0  0  0  0  0  0  0  0  0
    8.5468   -2.0089   19.3049 O   0  0  0  0  0  0  0  0  0  0  0  0
    7.3688   -0.8486   20.8420 N   0  0  0  0  0  0  0  0  0  0  0  0
    7.1776   -0.6602   22.1710 C   0  0  0  0  0  0  0  0  0  0  0  0
    7.9362   -1.1393   23.2154 C   0  0  0  0  0  0  0  0  0  0  0  0
    7.3243   -0.6471   24.3780 C   0  0  0  0  0  0  0  0  0  0  0  0
    6.2423    0.0891   24.1019 N   0  0  0  0  0  0  0  0  0  0  0  0
    6.1810    0.0787   22.7484 N   0  0  0  0  0  0  0  0  0  0  0  0
    5.1263    0.8016   22.0841 C   0  0  0  0  0  0  0  0  0  0  0  0
   11.7223   -1.6150   22.7146 C   0  0  0  0  0  0  0  0  0  0  0  0
   12.1376   -2.8928   22.0831 C   0  0  0  0  0  0  0  0  0  0  0  0
   12.6362   -0.6738   22.9770 N   0  0  0  0  0  0  0  0  0  0  0  0
  1  2  1  0
  2  3  1  0
  3  4  1  0
  4  5  2  0
  5 17  1  0
  6  5  1  6
  6  7  1  0
  7  8  1  0
  8  9  1  0
  8 10  2  0
 10 11  1  0
 11 12  2  0
 12 13  1  0
 12  6  1  0
 13 14  2  0
 14 15  1  0
 15 16  1  0
 15 11  1  0
 17 18  1  0
 17 19  2  0
 19  3  1  0
M  END
>  <enum_smi>  (75) 
CCn1cc(C2CC(O)=Nc3c2cnn3C)c(C)n1

>  <std_smi>  (75) 
CCn1cc(C2CC(O)=Nc3c2cnn3C)c(C)n1

>  <molecule_id>  (75) 
3267265

>  <enum_code>  (75) 
B

>  <codes>  (75) 
MolPort-019-793-251

>  <libraries>  (75) 
molport

>  <PH4_SCORE>  (75) 
-58.7512

>  <o3da_score>  (75) 
87.96103305951992

>  <o3da_score_rel>  (75) 
0.41663603537063837

>  <o3da_align>  (75) 
0.46401774039174698

$$$$
8833219
     RDKit          3D

 19 21  0  0  1  0  0  0  0  0999 V2000
    8.8491   -0.4971   18.3569 C   0  0  0  0  0  0  0  0  0  0  0  0
    7.5620   -0.0434   18.9457 C   0  0  0  0  0  0  0  0  0  0  0  0
    6.5723    0.3222   18.1257 N   0  0  0  0  0  0  0  0  0  0  0  0
    5.5678    0.6675   18.9418 N   0  0  0  0  0  0  0  0  0  0  0  0
    4.3220    1.1178   18.3650 C   0  0  0  0  0  0  0  0  0  0  0  0
    5.8771    0.5469   20.2716 C   0  0  0  0  0  0  0  0  0  0  0  0
    4.9174    0.8923   21.3530 C   0  0  0  0  0  0  0  0  0  0  0  0
    7.1780    0.0590   20.3180 C   0  0  0  0  0  0  0  0  0  0  0  0
    7.9836   -0.2735   21.5453 C   0  0  1  0  0  0  0  0  0  0  0  0
    7.7532   -1.7194   22.0360 C   0  0  0  0  0  0  0  0  0  0  0  0
    8.8651   -2.1808   22.9528 C   0  0  0  0  0  0  0  0  0  0  0  0
    8.5032   -3.1574   23.7968 O   0  0  0  0  0  0  0  0  0  0  0  0
   10.1013   -1.7927   22.9723 N   0  0  0  0  0  0  0  0  0  0  0  0
   10.3508   -0.7885   22.0959 C   0  0  0  0  0  0  0  0  0  0  0  0
    9.4430   -0.0336   21.3873 C   0  0  0  0  0  0  0  0  0  0  0  0
   10.2137    0.8809   20.6519 C   0  0  0  0  0  0  0  0  0  0  0  0
   11.5242    0.7185   20.8654 N   0  0  0  0  0  0  0  0  0  0  0  0
   11.5833   -0.3028   21.7530 N   0  0  0  0  0  0  0  0  0  0  0  0
   12.8678   -0.7521   22.2271 C   0  0  0  0  0  0  0  0  0  0  0  0
  1  2  1  0
  2  3  2  0
  3  4  1  0
  4  5  1  0
  4  6  1  0
  6  7  1  0
  6  8  2  0
  8  2  1  0
  9  8  1  6
  9 10  1  0
 10 11  1  0
 11 12  1  0
 11 13  2  0
 13 14  1  0
 14 15  2  0
 15 16  1  0
 15  9  1  0
 16 17  2  0
 17 18  1  0
 18 19  1  0
 18 14  1  0
M  END
>  <enum_smi>  (76) 
Cc1nn(C)c(C)c1C1CC(O)=Nc2c1cnn2C

>  <std_smi>  (76) 
Cc1nn(C)c(C)c1C1CC(O)=Nc2c1cnn2C

>  <molecule_id>  (76) 
3267779

>  <enum_code>  (76) 
B

>  <codes>  (76) 
MolPort-019-793-776

>  <libraries>  (76) 
molport

>  <PH4_SCORE>  (76) 
-65.2368

>  <o3da_score>  (76) 
88.103743347073092

>  <o3da_score_rel>  (76) 
0.41731199660420554

>  <o3da_align>  (76) 
0.51084543963739426

$$$$
8833219
     RDKit          3D

 19 21  0  0  1  0  0  0  0  0999 V2000
    4.8562    0.9263   21.5917 C   0  0  0  0  0  0  0  0  0  0  0  0
    5.7610    0.6118   20.4552 C   0  0  0  0  0  0  0  0  0  0  0  0
    5.3289    0.8279   19.2094 N   0  0  0  0  0  0  0  0  0  0  0  0
    6.3519    0.4576   18.4280 N   0  0  0  0  0  0  0  0  0  0  0  0
    6.2128    0.5694   16.9944 C   0  0  0  0  0  0  0  0  0  0  0  0
    7.4364   -0.0034   19.1284 C   0  0  0  0  0  0  0  0  0  0  0  0
    8.6761   -0.4832   18.4632 C   0  0  0  0  0  0  0  0  0  0  0  0
    7.0958    0.1025   20.4720 C   0  0  0  0  0  0  0  0  0  0  0  0
    7.9506   -0.2503   21.6597 C   0  0  1  0  0  0  0  0  0  0  0  0
    7.7299   -1.7002   22.1434 C   0  0  0  0  0  0  0  0  0  0  0  0
    8.8765   -2.1805   23.0061 C   0  0  0  0  0  0  0  0  0  0  0  0
    8.5433   -3.1642   23.8538 O   0  0  0  0  0  0  0  0  0  0  0  0
   10.1155   -1.8019   22.9769 N   0  0  0  0  0  0  0  0  0  0  0  0
   10.3351   -0.7893   22.1021 C   0  0  0  0  0  0  0  0  0  0  0  0
    9.4037   -0.0196   21.4418 C   0  0  0  0  0  0  0  0  0  0  0  0
   10.1495    0.8977   20.6844 C   0  0  0  0  0  0  0  0  0  0  0  0
   11.4665    0.7231   20.8395 N   0  0  0  0  0  0  0  0  0  0  0  0
   11.5556   -0.3089   21.7119 N   0  0  0  0  0  0  0  0  0  0  0  0
   12.8556   -0.7734   22.1253 C   0  0  0  0  0  0  0  0  0  0  0  0
  1  2  1  0
  2  3  2  0
  3  4  1  0
  4  5  1  0
  4  6  1  0
  6  7  1  0
  6  8  2  0
  8  2  1  0
  9  8  1  6
  9 10  1  0
 10 11  1  0
 11 12  1  0
 11 13  2  0
 13 14  1  0
 14 15  2  0
 15 16  1  0
 15  9  1  0
 16 17  2  0
 17 18  1  0
 18 19  1  0
 18 14  1  0
M  END
>  <enum_smi>  (77) 
Cc1nn(C)c(C)c1C1CC(O)=Nc2c1cnn2C

>  <std_smi>  (77) 
Cc1nn(C)c(C)c1C1CC(O)=Nc2c1cnn2C

>  <molecule_id>  (77) 
3267779

>  <enum_code>  (77) 
B

>  <codes>  (77) 
MolPort-019-793-776

>  <libraries>  (77) 
molport

>  <PH4_SCORE>  (77) 
-65.1341

>  <o3da_score>  (77) 
81.660493639828005

>  <o3da_score_rel>  (77) 
0.38679291423834561

>  <o3da_align>  (77) 
0.51867982134075796

$$$$
8833219
     RDKit          3D

 19 21  0  0  1  0  0  0  0  0999 V2000
    5.3966    0.6605   22.9715 C   0  0  0  0  0  0  0  0  0  0  0  0
    5.8203    0.5379   21.5522 C   0  0  0  0  0  0  0  0  0  0  0  0
    5.0808    1.1245   20.6065 N   0  0  0  0  0  0  0  0  0  0  0  0
    5.7122    0.8410   19.4597 N   0  0  0  0  0  0  0  0  0  0  0  0
    5.1646    1.3386   18.2187 C   0  0  0  0  0  0  0  0  0  0  0  0
    6.8379    0.0775   19.6290 C   0  0  0  0  0  0  0  0  0  0  0  0
    7.6831   -0.3691   18.4907 C   0  0  0  0  0  0  0  0  0  0  0  0
    6.9578   -0.1264   20.9990 C   0  0  0  0  0  0  0  0  0  0  0  0
    8.0434   -0.8833   21.7162 C   0  0  1  0  0  0  0  0  0  0  0  0
    8.5796   -2.0769   20.8961 C   0  0  0  0  0  0  0  0  0  0  0  0
    9.9317   -2.5352   21.3975 C   0  0  0  0  0  0  0  0  0  0  0  0
   10.2105   -3.8156   21.1147 O   0  0  0  0  0  0  0  0  0  0  0  0
   10.8437   -1.8364   21.9970 N   0  0  0  0  0  0  0  0  0  0  0  0
   10.4480   -0.5649   22.2528 C   0  0  0  0  0  0  0  0  0  0  0  0
    9.1830   -0.0311   22.1486 C   0  0  0  0  0  0  0  0  0  0  0  0
    9.3101    1.3076   22.5525 C   0  0  0  0  0  0  0  0  0  0  0  0
   10.5693    1.6145   22.8833 N   0  0  0  0  0  0  0  0  0  0  0  0
   11.2446    0.4556   22.6965 N   0  0  0  0  0  0  0  0  0  0  0  0
   12.6585    0.4105   22.9716 C   0  0  0  0  0  0  0  0  0  0  0  0
  1  2  1  0
  2  3  2  0
  3  4  1  0
  4  5  1  0
  4  6  1  0
  6  7  1  0
  6  8  2  0
  8  2  1  0
  9  8  1  6
  9 10  1  0
 10 11  1  0
 11 12  1  0
 11 13  2  0
 13 14  1  0
 14 15  2  0
 15 16  1  0
 15  9  1  0
 16 17  2  0
 17 18  1  0
 18 19  1  0
 18 14  1  0
M  END
>  <enum_smi>  (78) 
Cc1nn(C)c(C)c1C1CC(O)=Nc2c1cnn2C

>  <std_smi>  (78) 
Cc1nn(C)c(C)c1C1CC(O)=Nc2c1cnn2C

>  <molecule_id>  (78) 
3267779

>  <enum_code>  (78) 
B

>  <codes>  (78) 
MolPort-019-793-776

>  <libraries>  (78) 
molport

>  <PH4_SCORE>  (78) 
-63.2767

>  <o3da_score>  (78) 
65.309879853073724

>  <o3da_score_rel>  (78) 
0.30934663300401533

>  <o3da_align>  (78) 
0.55762070507258643

$$$$
8833219
     RDKit          3D

 19 21  0  0  1  0  0  0  0  0999 V2000
    7.9957   -2.0458   18.7318 C   0  0  0  0  0  0  0  0  0  0  0  0
    7.0254   -1.0480   19.2534 C   0  0  0  0  0  0  0  0  0  0  0  0
    6.0530   -0.6128   18.4468 N   0  0  0  0  0  0  0  0  0  0  0  0
    5.3579    0.2553   19.1935 N   0  0  0  0  0  0  0  0  0  0  0  0
    4.2137    0.9182   18.6117 C   0  0  0  0  0  0  0  0  0  0  0  0
    5.8549    0.4064   20.4620 C   0  0  0  0  0  0  0  0  0  0  0  0
    5.2503    1.3320   21.4556 C   0  0  0  0  0  0  0  0  0  0  0  0
    6.9436   -0.4537   20.5501 C   0  0  0  0  0  0  0  0  0  0  0  0
    7.8267   -0.6867   21.7466 C   0  0  1  0  0  0  0  0  0  0  0  0
    8.0735   -2.1859   22.0225 C   0  0  0  0  0  0  0  0  0  0  0  0
    9.2846   -2.3984   22.9044 C   0  0  0  0  0  0  0  0  0  0  0  0
    9.2614   -3.5497   23.5907 O   0  0  0  0  0  0  0  0  0  0  0  0
   10.3333   -1.6461   23.0215 N   0  0  0  0  0  0  0  0  0  0  0  0
   10.2407   -0.4998   22.3032 C   0  0  0  0  0  0  0  0  0  0  0  0
    9.1321    0.0225   21.6752 C   0  0  0  0  0  0  0  0  0  0  0  0
    9.5638    1.2294   21.1022 C   0  0  0  0  0  0  0  0  0  0  0  0
   10.8601    1.4610   21.3370 N   0  0  0  0  0  0  0  0  0  0  0  0
   11.2508    0.3947   22.0749 N   0  0  0  0  0  0  0  0  0  0  0  0
   12.6167    0.3116   22.5267 C   0  0  0  0  0  0  0  0  0  0  0  0
  1  2  1  0
  2  3  2  0
  3  4  1  0
  4  5  1  0
  4  6  1  0
  6  7  1  0
  6  8  2  0
  8  2  1  0
  9  8  1  6
  9 10  1  0
 10 11  1  0
 11 12  1  0
 11 13  2  0
 13 14  1  0
 14 15  2  0
 15 16  1  0
 15  9  1  0
 16 17  2  0
 17 18  1  0
 18 19  1  0
 18 14  1  0
M  END
>  <enum_smi>  (79) 
Cc1nn(C)c(C)c1C1CC(O)=Nc2c1cnn2C

>  <std_smi>  (79) 
Cc1nn(C)c(C)c1C1CC(O)=Nc2c1cnn2C

>  <molecule_id>  (79) 
3267779

>  <enum_code>  (79) 
B

>  <codes>  (79) 
MolPort-019-793-776

>  <libraries>  (79) 
molport

>  <PH4_SCORE>  (79) 
-62.5245

>  <o3da_score>  (79) 
79.372406452569493

>  <o3da_score_rel>  (79) 
0.37595516550889763

>  <o3da_align>  (79) 
0.56923344441541313

$$$$
8833219
     RDKit          3D

 19 21  0  0  1  0  0  0  0  0999 V2000
    8.4839   -1.2685   17.9375 C   0  0  0  0  0  0  0  0  0  0  0  0
    7.4734   -0.3443   18.5153 C   0  0  0  0  0  0  0  0  0  0  0  0
    6.6785    0.3396   17.6871 N   0  0  0  0  0  0  0  0  0  0  0  0
    5.8933    1.0647   18.4946 N   0  0  0  0  0  0  0  0  0  0  0  0
    4.8977    1.9316   17.9077 C   0  0  0  0  0  0  0  0  0  0  0  0
    6.1599    0.8808   19.8265 C   0  0  0  0  0  0  0  0  0  0  0  0
    5.4215    1.5979   20.8990 C   0  0  0  0  0  0  0  0  0  0  0  0
    7.1824   -0.0593   19.8847 C   0  0  0  0  0  0  0  0  0  0  0  0
    7.8271   -0.6296   21.1195 C   0  0  1  0  0  0  0  0  0  0  0  0
    8.4627   -2.0154   20.8742 C   0  0  0  0  0  0  0  0  0  0  0  0
    9.4704   -2.3644   21.9477 C   0  0  0  0  0  0  0  0  0  0  0  0
    9.6631   -3.6817   22.1043 O   0  0  0  0  0  0  0  0  0  0  0  0
   10.1872   -1.5592   22.6669 N   0  0  0  0  0  0  0  0  0  0  0  0
    9.8953   -0.2539   22.4436 C   0  0  0  0  0  0  0  0  0  0  0  0
    8.8343    0.2714   21.7403 C   0  0  0  0  0  0  0  0  0  0  0  0
    8.9804    1.6648   21.8335 C   0  0  0  0  0  0  0  0  0  0  0  0
   10.0637    2.0099   22.5382 N   0  0  0  0  0  0  0  0  0  0  0  0
   10.6036    0.8228   22.9036 N   0  0  0  0  0  0  0  0  0  0  0  0
   11.8039    0.8091   23.7009 C   0  0  0  0  0  0  0  0  0  0  0  0
  1  2  1  0
  2  3  2  0
  3  4  1  0
  4  5  1  0
  4  6  1  0
  6  7  1  0
  6  8  2  0
  8  2  1  0
  9  8  1  6
  9 10  1  0
 10 11  1  0
 11 12  1  0
 11 13  2  0
 13 14  1  0
 14 15  2  0
 15 16  1  0
 15  9  1  0
 16 17  2  0
 17 18  1  0
 18 19  1  0
 18 14  1  0
M  END
>  <enum_smi>  (80) 
Cc1nn(C)c(C)c1C1CC(O)=Nc2c1cnn2C

>  <std_smi>  (80) 
Cc1nn(C)c(C)c1C1CC(O)=Nc2c1cnn2C

>  <molecule_id>  (80) 
3267779

>  <enum_code>  (80) 
B

>  <codes>  (80) 
MolPort-019-793-776

>  <libraries>  (80) 
molport

>  <PH4_SCORE>  (80) 
-62.2858

>  <o3da_score>  (80) 
68.917891023028858

>  <o3da_score_rel>  (80) 
0.32643633076149742

>  <o3da_align>  (80) 
0.38842984629080141

$$$$
8833270
     RDKit          3D

 19 21  0  0  1  0  0  0  0  0999 V2000
    9.5797   -7.4607   23.8845 C   0  0  0  0  0  0  0  0  0  0  0  0
    9.2615   -7.0536   22.5348 N   0  0  0  0  0  0  0  0  0  0  0  0
    9.1027   -5.7348   22.2804 C   0  0  0  0  0  0  0  0  0  0  0  0
    8.8112   -5.2180   21.1077 N   0  0  0  0  0  0  0  0  0  0  0  0
    8.7242   -3.8537   21.2046 C   0  0  0  0  0  0  0  0  0  0  0  0
    8.9571   -3.3356   22.4563 C   0  0  0  0  0  0  0  0  0  0  0  0
    9.2742   -4.5863   23.5618 S   0  0  0  0  0  0  0  0  0  0  0  0
    8.9141   -1.8856   22.7930 C   0  0  1  0  0  0  0  0  0  0  0  0
   10.2919   -1.2421   22.8890 C   0  0  0  0  0  0  0  0  0  0  0  0
   10.5503   -0.1318   23.7107 C   0  0  0  0  0  0  0  0  0  0  0  0
   11.8321    0.4211   23.7833 C   0  0  0  0  0  0  0  0  0  0  0  0
   12.8768   -0.1268   23.0415 C   0  0  0  0  0  0  0  0  0  0  0  0
   12.6285   -1.2270   22.2301 C   0  0  0  0  0  0  0  0  0  0  0  0
   13.6183   -1.7996   21.4869 O   0  0  0  0  0  0  0  0  0  0  0  0
   11.3558   -1.7847   22.1496 C   0  0  0  0  0  0  0  0  0  0  0  0
    8.0257   -1.1851   21.7553 C   0  0  0  0  0  0  0  0  0  0  0  0
    8.1652   -1.8196   20.3980 C   0  0  0  0  0  0  0  0  0  0  0  0
    7.8910   -0.9816   19.3859 O   0  0  0  0  0  0  0  0  0  0  0  0
    8.4524   -3.0401   20.0933 N   0  0  0  0  0  0  0  0  0  0  0  0
  1  2  1  0
  2  3  1  0
  3  4  2  0
  4  5  1  0
  5  6  2  0
  6  7  1  0
  6  8  1  0
  7  3  1  0
  8  9  1  6
  8 16  1  0
  9 10  2  0
 10 11  1  0
 11 12  2  0
 12 13  1  0
 13 14  1  0
 13 15  2  0
 15  9  1  0
 16 17  1  0
 17 18  1  0
 17 19  2  0
 19  5  1  0
M  END
>  <enum_smi>  (81) 
CNc1nc2c(s1)C(c1cccc(O)c1)CC(O)=N2

>  <std_smi>  (81) 
CNc1nc2c(s1)C(c1cccc(O)c1)CC(O)=N2

>  <molecule_id>  (81) 
3267830

>  <enum_code>  (81) 
B

>  <codes>  (81) 
MolPort-019-794-108

>  <libraries>  (81) 
molport

>  <PH4_SCORE>  (81) 
-67.483

>  <o3da_score>  (81) 
77.67078226264654

>  <o3da_score_rel>  (81) 
0.36789525612037843

>  <o3da_align>  (81) 
0.29881908350935116

$$$$
8833270
     RDKit          3D

 19 21  0  0  1  0  0  0  0  0999 V2000
    7.5587    1.3855   17.3032 C   0  0  0  0  0  0  0  0  0  0  0  0
    6.8931    0.3688   18.0857 N   0  0  0  0  0  0  0  0  0  0  0  0
    7.6426   -0.4167   18.8921 C   0  0  0  0  0  0  0  0  0  0  0  0
    7.1800   -1.3830   19.6534 N   0  0  0  0  0  0  0  0  0  0  0  0
    8.2090   -1.9744   20.3384 C   0  0  0  0  0  0  0  0  0  0  0  0
    9.4562   -1.4484   20.0984 C   0  0  0  0  0  0  0  0  0  0  0  0
    9.3552   -0.1875   18.9640 S   0  0  0  0  0  0  0  0  0  0  0  0
   10.7148   -1.9340   20.7292 C   0  0  1  0  0  0  0  0  0  0  0  0
   11.1912   -1.0634   21.8853 C   0  0  0  0  0  0  0  0  0  0  0  0
   10.3339   -0.1882   22.5737 C   0  0  0  0  0  0  0  0  0  0  0  0
   10.8056    0.5834   23.6397 C   0  0  0  0  0  0  0  0  0  0  0  0
   12.1377    0.4913   24.0385 C   0  0  0  0  0  0  0  0  0  0  0  0
   12.9893   -0.3750   23.3643 C   0  0  0  0  0  0  0  0  0  0  0  0
   14.3002   -0.5016   23.7185 O   0  0  0  0  0  0  0  0  0  0  0  0
   12.5304   -1.1471   22.3009 C   0  0  0  0  0  0  0  0  0  0  0  0
   10.4959   -3.3907   21.1614 C   0  0  0  0  0  0  0  0  0  0  0  0
    9.0803   -3.6194   21.6173 C   0  0  0  0  0  0  0  0  0  0  0  0
    8.9568   -4.6337   22.4878 O   0  0  0  0  0  0  0  0  0  0  0  0
    7.9977   -3.0207   21.2502 N   0  0  0  0  0  0  0  0  0  0  0  0
  1  2  1  0
  2  3  1  0
  3  4  2  0
  4  5  1  0
  5  6  2  0
  6  7  1  0
  6  8  1  0
  7  3  1  0
  8  9  1  1
  8 16  1  0
  9 10  2  0
 10 11  1  0
 11 12  2  0
 12 13  1  0
 13 14  1  0
 13 15  2  0
 15  9  1  0
 16 17  1  0
 17 18  1  0
 17 19  2  0
 19  5  1  0
M  END
>  <enum_smi>  (82) 
CNc1nc2c(s1)C(c1cccc(O)c1)CC(O)=N2

>  <std_smi>  (82) 
CNc1nc2c(s1)C(c1cccc(O)c1)CC(O)=N2

>  <molecule_id>  (82) 
3267830

>  <enum_code>  (82) 
B

>  <codes>  (82) 
MolPort-019-794-108

>  <libraries>  (82) 
molport

>  <PH4_SCORE>  (82) 
-66.4806

>  <o3da_score>  (82) 
69.649396870876075

>  <o3da_score_rel>  (82) 
0.32990117974856276

>  <o3da_align>  (82) 
0.57276352312947243

$$$$
8833270
     RDKit          3D

 19 21  0  0  1  0  0  0  0  0999 V2000
    6.8061   -4.8374   17.9978 C   0  0  0  0  0  0  0  0  0  0  0  0
    7.1647   -5.0110   19.3871 N   0  0  0  0  0  0  0  0  0  0  0  0
    7.6445   -3.9445   20.0664 C   0  0  0  0  0  0  0  0  0  0  0  0
    7.8115   -2.7399   19.5681 N   0  0  0  0  0  0  0  0  0  0  0  0
    8.3151   -1.9007   20.5274 C   0  0  0  0  0  0  0  0  0  0  0  0
    8.5360   -2.4755   21.7564 C   0  0  0  0  0  0  0  0  0  0  0  0
    8.0818   -4.1125   21.7311 S   0  0  0  0  0  0  0  0  0  0  0  0
    9.0754   -1.7546   22.9427 C   0  0  1  0  0  0  0  0  0  0  0  0
   10.5574   -2.0096   23.1875 C   0  0  0  0  0  0  0  0  0  0  0  0
   11.0473   -2.4936   24.4124 C   0  0  0  0  0  0  0  0  0  0  0  0
   12.4133   -2.7294   24.5932 C   0  0  0  0  0  0  0  0  0  0  0  0
   13.3111   -2.4905   23.5546 C   0  0  0  0  0  0  0  0  0  0  0  0
   12.8325   -2.0155   22.3399 C   0  0  0  0  0  0  0  0  0  0  0  0
   13.6712   -1.7683   21.2933 O   0  0  0  0  0  0  0  0  0  0  0  0
   11.4745   -1.7763   22.1494 C   0  0  0  0  0  0  0  0  0  0  0  0
    8.7727   -0.2600   22.7660 C   0  0  0  0  0  0  0  0  0  0  0  0
    8.8478    0.1462   21.3192 C   0  0  0  0  0  0  0  0  0  0  0  0
    9.1434    1.4438   21.1434 O   0  0  0  0  0  0  0  0  0  0  0  0
    8.6191   -0.5563   20.2612 N   0  0  0  0  0  0  0  0  0  0  0  0
  1  2  1  0
  2  3  1  0
  3  4  2  0
  4  5  1  0
  5  6  2  0
  6  7  1  0
  6  8  1  0
  7  3  1  0
  8  9  1  6
  8 16  1  0
  9 10  2  0
 10 11  1  0
 11 12  2  0
 12 13  1  0
 13 14  1  0
 13 15  2  0
 15  9  1  0
 16 17  1  0
 17 18  1  0
 17 19  2  0
 19  5  1  0
M  END
>  <enum_smi>  (83) 
CNc1nc2c(s1)C(c1cccc(O)c1)CC(O)=N2

>  <std_smi>  (83) 
CNc1nc2c(s1)C(c1cccc(O)c1)CC(O)=N2

>  <molecule_id>  (83) 
3267830

>  <enum_code>  (83) 
B

>  <codes>  (83) 
MolPort-019-794-108

>  <libraries>  (83) 
molport

>  <PH4_SCORE>  (83) 
-66.446

>  <o3da_score>  (83) 
88.457396648609802

>  <o3da_score_rel>  (83) 
0.41898711005300154

>  <o3da_align>  (83) 
0.50309770208729965

$$$$
8833270
     RDKit          3D

 19 21  0  0  1  0  0  0  0  0999 V2000
    7.6859   -0.3960   16.7922 C   0  0  0  0  0  0  0  0  0  0  0  0
    6.9671    0.2278   17.8799 N   0  0  0  0  0  0  0  0  0  0  0  0
    7.2644   -0.1445   19.1456 C   0  0  0  0  0  0  0  0  0  0  0  0
    6.6568    0.2903   20.2270 N   0  0  0  0  0  0  0  0  0  0  0  0
    7.2075   -0.2894   21.3399 C   0  0  0  0  0  0  0  0  0  0  0  0
    8.2413   -1.1628   21.0993 C   0  0  0  0  0  0  0  0  0  0  0  0
    8.5288   -1.2894   19.4295 S   0  0  0  0  0  0  0  0  0  0  0  0
    8.9839   -1.9058   22.1550 C   0  0  1  0  0  0  0  0  0  0  0  0
   10.3342   -1.2890   22.4975 C   0  0  0  0  0  0  0  0  0  0  0  0
   11.5112   -1.6167   21.8034 C   0  0  0  0  0  0  0  0  0  0  0  0
   12.7291   -1.0173   22.1379 C   0  0  0  0  0  0  0  0  0  0  0  0
   12.7914   -0.0790   23.1663 C   0  0  0  0  0  0  0  0  0  0  0  0
   11.6304    0.2521   23.8538 C   0  0  0  0  0  0  0  0  0  0  0  0
   11.6402    1.1658   24.8662 O   0  0  0  0  0  0  0  0  0  0  0  0
   10.4128   -0.3394   23.5297 C   0  0  0  0  0  0  0  0  0  0  0  0
    8.0741   -2.0135   23.3868 C   0  0  0  0  0  0  0  0  0  0  0  0
    7.2172   -0.7864   23.5430 C   0  0  0  0  0  0  0  0  0  0  0  0
    6.8385   -0.5573   24.8103 O   0  0  0  0  0  0  0  0  0  0  0  0
    6.7695    0.0171   22.6380 N   0  0  0  0  0  0  0  0  0  0  0  0
  1  2  1  0
  2  3  1  0
  3  4  2  0
  4  5  1  0
  5  6  2  0
  6  7  1  0
  6  8  1  0
  7  3  1  0
  8  9  1  1
  8 16  1  0
  9 10  2  0
 10 11  1  0
 11 12  2  0
 12 13  1  0
 13 14  1  0
 13 15  2  0
 15  9  1  0
 16 17  1  0
 17 18  1  0
 17 19  2  0
 19  5  1  0
M  END
>  <enum_smi>  (84) 
CNc1nc2c(s1)C(c1cccc(O)c1)CC(O)=N2

>  <std_smi>  (84) 
CNc1nc2c(s1)C(c1cccc(O)c1)CC(O)=N2

>  <molecule_id>  (84) 
3267830

>  <enum_code>  (84) 
B

>  <codes>  (84) 
MolPort-019-794-108

>  <libraries>  (84) 
molport

>  <PH4_SCORE>  (84) 
-65.722

>  <o3da_score>  (84) 
76.508856687345542

>  <o3da_score_rel>  (84) 
0.3623916820006704

>  <o3da_align>  (84) 
0.44984324873895554

$$$$
8833270
     RDKit          3D

 19 21  0  0  1  0  0  0  0  0999 V2000
    7.5611    1.3636   17.2790 C   0  0  0  0  0  0  0  0  0  0  0  0
    6.8924    0.3689   18.0865 N   0  0  0  0  0  0  0  0  0  0  0  0
    7.6423   -0.4166   18.8925 C   0  0  0  0  0  0  0  0  0  0  0  0
    7.1801   -1.3834   19.6534 N   0  0  0  0  0  0  0  0  0  0  0  0
    8.2095   -1.9746   20.3381 C   0  0  0  0  0  0  0  0  0  0  0  0
    9.4563   -1.4480   20.0982 C   0  0  0  0  0  0  0  0  0  0  0  0
    9.3546   -0.1868   18.9643 S   0  0  0  0  0  0  0  0  0  0  0  0
   10.7153   -1.9334   20.7288 C   0  0  1  0  0  0  0  0  0  0  0  0
   11.1914   -1.0631   21.8851 C   0  0  0  0  0  0  0  0  0  0  0  0
   10.3352   -0.1840   22.5700 C   0  0  0  0  0  0  0  0  0  0  0  0
   10.8065    0.5872   23.6364 C   0  0  0  0  0  0  0  0  0  0  0  0
   12.1371    0.4910   24.0391 C   0  0  0  0  0  0  0  0  0  0  0  0
   12.9877   -0.3791   23.3684 C   0  0  0  0  0  0  0  0  0  0  0  0
   14.2970   -0.5098   23.7263 O   0  0  0  0  0  0  0  0  0  0  0  0
   12.5291   -1.1508   22.3046 C   0  0  0  0  0  0  0  0  0  0  0  0
   10.4969   -3.3903   21.1605 C   0  0  0  0  0  0  0  0  0  0  0  0
    9.0815   -3.6198   21.6165 C   0  0  0  0  0  0  0  0  0  0  0  0
    8.9584   -4.6345   22.4865 O   0  0  0  0  0  0  0  0  0  0  0  0
    7.9987   -3.0214   21.2496 N   0  0  0  0  0  0  0  0  0  0  0  0
  1  2  1  0
  2  3  1  0
  3  4  2  0
  4  5  1  0
  5  6  2  0
  6  7  1  0
  6  8  1  0
  7  3  1  0
  8  9  1  1
  8 16  1  0
  9 10  2  0
 10 11  1  0
 11 12  2  0
 12 13  1  0
 13 14  1  0
 13 15  2  0
 15  9  1  0
 16 17  1  0
 17 18  1  0
 17 19  2  0
 19  5  1  0
M  END
>  <enum_smi>  (85) 
CNc1nc2c(s1)C(c1cccc(O)c1)CC(O)=N2

>  <std_smi>  (85) 
CNc1nc2c(s1)C(c1cccc(O)c1)CC(O)=N2

>  <molecule_id>  (85) 
3267830

>  <enum_code>  (85) 
B

>  <codes>  (85) 
MolPort-019-794-108

>  <libraries>  (85) 
molport

>  <PH4_SCORE>  (85) 
-65.2416

>  <o3da_score>  (85) 
69.60279490577031

>  <o3da_score_rel>  (85) 
0.3296804449833286

>  <o3da_align>  (85) 
0.57425916214106332

$$$$
8833948
     RDKit          3D

 20 22  0  0  0  0  0  0  0  0999 V2000
    6.1395   -0.1119   18.9073 C   0  0  0  0  0  0  0  0  0  0  0  0
    6.9635    0.0443   20.1314 C   0  0  0  0  0  0  0  0  0  0  0  0
    8.2776   -0.0295   20.1710 N   0  0  0  0  0  0  0  0  0  0  0  0
    8.7689    0.1597   21.4447 N   0  0  0  0  0  0  0  0  0  0  0  0
    7.8105    0.3967   22.3176 C   0  0  0  0  0  0  0  0  0  0  0  0
    8.0257    0.7073   23.7275 C   0  0  0  0  0  0  0  0  0  0  0  0
    6.9745    1.2815   24.4618 C   0  0  0  0  0  0  0  0  0  0  0  0
    7.1307    1.5697   25.8173 C   0  0  0  0  0  0  0  0  0  0  0  0
    8.3339    1.2807   26.4540 C   0  0  0  0  0  0  0  0  0  0  0  0
    9.3821    0.6998   25.7376 C   0  0  0  0  0  0  0  0  0  0  0  0
    9.2477    0.3981   24.3696 C   0  0  0  0  0  0  0  0  0  0  0  0
   10.3851   -0.2100   23.6519 C   0  0  0  0  0  0  0  0  0  0  0  0
   11.5906    0.5173   23.5744 C   0  0  0  0  0  0  0  0  0  0  0  0
   12.6979    0.0191   22.8873 C   0  0  0  0  0  0  0  0  0  0  0  0
   12.6226   -1.2186   22.2620 C   0  0  0  0  0  0  0  0  0  0  0  0
   11.4435   -1.9583   22.3314 C   0  0  0  0  0  0  0  0  0  0  0  0
   10.3162   -1.4746   23.0250 C   0  0  0  0  0  0  0  0  0  0  0  0
    9.0929   -2.3591   23.0727 C   0  0  0  0  0  0  0  0  0  0  0  0
    8.5213   -2.4714   21.7757 O   0  0  0  0  0  0  0  0  0  0  0  0
    6.2275    0.3473   21.6552 S   0  0  0  0  0  0  0  0  0  0  0  0
  1  2  1  0
  2  3  2  0
  3  4  1  0
  4  5  2  0
  5  6  1  0
  5 20  1  0
  6  7  2  0
  7  8  1  0
  8  9  2  0
  9 10  1  0
 10 11  2  0
 11 12  1  0
 11  6  1  0
 12 13  2  0
 13 14  1  0
 14 15  2  0
 15 16  1  0
 16 17  2  0
 17 18  1  0
 17 12  1  0
 18 19  1  0
 20  2  1  0
M  END
>  <enum_smi>  (86) 
Cc1nnc(-c2ccccc2-c2ccccc2CO)s1

>  <std_smi>  (86) 
Cc1nnc(-c2ccccc2-c2ccccc2CO)s1

>  <molecule_id>  (86) 
3274396

>  <enum_code>  (86) 
B

>  <codes>  (86) 
MolPort-019-801-313

>  <libraries>  (86) 
molport

>  <PH4_SCORE>  (86) 
-58.3939

>  <o3da_score>  (86) 
88.23473388809883

>  <o3da_score_rel>  (86) 
0.41793244611219493

>  <o3da_align>  (86) 
0.38317537004197416

$$$$
8833948
     RDKit          3D

 20 22  0  0  0  0  0  0  0  0999 V2000
    5.6867    0.2378   19.7028 C   0  0  0  0  0  0  0  0  0  0  0  0
    6.9911   -0.4008   20.0067 C   0  0  0  0  0  0  0  0  0  0  0  0
    7.9912    0.1854   20.6315 N   0  0  0  0  0  0  0  0  0  0  0  0
    9.0747   -0.6537   20.7764 N   0  0  0  0  0  0  0  0  0  0  0  0
    8.8455   -1.8528   20.2799 C   0  0  0  0  0  0  0  0  0  0  0  0
    9.7757   -2.9754   20.3497 C   0  0  0  0  0  0  0  0  0  0  0  0
    9.5685   -4.0790   19.5053 C   0  0  0  0  0  0  0  0  0  0  0  0
   10.4488   -5.1606   19.5227 C   0  0  0  0  0  0  0  0  0  0  0  0
   11.5474   -5.1473   20.3767 C   0  0  0  0  0  0  0  0  0  0  0  0
   11.7701   -4.0514   21.2126 C   0  0  0  0  0  0  0  0  0  0  0  0
   10.8970   -2.9478   21.2115 C   0  0  0  0  0  0  0  0  0  0  0  0
   11.1693   -1.8143   22.1169 C   0  0  0  0  0  0  0  0  0  0  0  0
   12.3839   -1.1147   21.9634 C   0  0  0  0  0  0  0  0  0  0  0  0
   12.7225   -0.0522   22.8016 C   0  0  0  0  0  0  0  0  0  0  0  0
   11.8524    0.3333   23.8130 C   0  0  0  0  0  0  0  0  0  0  0  0
   10.6431   -0.3392   23.9790 C   0  0  0  0  0  0  0  0  0  0  0  0
   10.2808   -1.4112   23.1393 C   0  0  0  0  0  0  0  0  0  0  0  0
    8.9373   -2.0598   23.3748 C   0  0  0  0  0  0  0  0  0  0  0  0
    7.8933   -1.1549   23.0392 O   0  0  0  0  0  0  0  0  0  0  0  0
    7.3042   -2.0266   19.5438 S   0  0  0  0  0  0  0  0  0  0  0  0
  1  2  1  0
  2  3  2  0
  3  4  1  0
  4  5  2  0
  5  6  1  0
  5 20  1  0
  6  7  2  0
  7  8  1  0
  8  9  2  0
  9 10  1  0
 10 11  2  0
 11 12  1  0
 11  6  1  0
 12 13  2  0
 13 14  1  0
 14 15  2  0
 15 16  1  0
 16 17  2  0
 17 18  1  0
 17 12  1  0
 18 19  1  0
 20  2  1  0
M  END
>  <enum_smi>  (87) 
Cc1nnc(-c2ccccc2-c2ccccc2CO)s1

>  <std_smi>  (87) 
Cc1nnc(-c2ccccc2-c2ccccc2CO)s1

>  <molecule_id>  (87) 
3274396

>  <enum_code>  (87) 
B

>  <codes>  (87) 
MolPort-019-801-313

>  <libraries>  (87) 
molport

>  <PH4_SCORE>  (87) 
-54.1012

>  <o3da_score>  (87) 
87.357109504470898

>  <o3da_score_rel>  (87) 
0.41377549239051775

>  <o3da_align>  (87) 
0.49705069821523568

$$$$
8833948
     RDKit          3D

 20 22  0  0  0  0  0  0  0  0999 V2000
    6.0753   -0.3304   18.9899 C   0  0  0  0  0  0  0  0  0  0  0  0
    6.9197   -0.0958   20.1872 C   0  0  0  0  0  0  0  0  0  0  0  0
    8.2363   -0.0701   20.1888 N   0  0  0  0  0  0  0  0  0  0  0  0
    8.7480    0.1732   21.4450 N   0  0  0  0  0  0  0  0  0  0  0  0
    7.7999    0.3497   22.3432 C   0  0  0  0  0  0  0  0  0  0  0  0
    8.0312    0.6952   23.7423 C   0  0  0  0  0  0  0  0  0  0  0  0
    6.9864    1.2817   24.4758 C   0  0  0  0  0  0  0  0  0  0  0  0
    7.1582    1.6032   25.8220 C   0  0  0  0  0  0  0  0  0  0  0  0
    8.3707    1.3355   26.4500 C   0  0  0  0  0  0  0  0  0  0  0  0
    9.4128    0.7426   25.7345 C   0  0  0  0  0  0  0  0  0  0  0  0
    9.2627    0.4074   24.3761 C   0  0  0  0  0  0  0  0  0  0  0  0
   10.3941   -0.2123   23.6588 C   0  0  0  0  0  0  0  0  0  0  0  0
   11.6123    0.4951   23.5963 C   0  0  0  0  0  0  0  0  0  0  0  0
   12.7152   -0.0146   22.9107 C   0  0  0  0  0  0  0  0  0  0  0  0
   12.6228   -1.2441   22.2717 C   0  0  0  0  0  0  0  0  0  0  0  0
   11.4308   -1.9643   22.3260 C   0  0  0  0  0  0  0  0  0  0  0  0
   10.3076   -1.4689   23.0179 C   0  0  0  0  0  0  0  0  0  0  0  0
    9.0693   -2.3329   23.0488 C   0  0  0  0  0  0  0  0  0  0  0  0
    8.5523   -2.4916   21.7339 O   0  0  0  0  0  0  0  0  0  0  0  0
    6.2068    0.1723   21.7284 S   0  0  0  0  0  0  0  0  0  0  0  0
  1  2  1  0
  2  3  2  0
  3  4  1  0
  4  5  2  0
  5  6  1  0
  5 20  1  0
  6  7  2  0
  7  8  1  0
  8  9  2  0
  9 10  1  0
 10 11  2  0
 11 12  1  0
 11  6  1  0
 12 13  2  0
 13 14  1  0
 14 15  2  0
 15 16  1  0
 16 17  2  0
 17 18  1  0
 17 12  1  0
 18 19  1  0
 20  2  1  0
M  END
>  <enum_smi>  (88) 
Cc1nnc(-c2ccccc2-c2ccccc2CO)s1

>  <std_smi>  (88) 
Cc1nnc(-c2ccccc2-c2ccccc2CO)s1

>  <molecule_id>  (88) 
3274396

>  <enum_code>  (88) 
B

>  <codes>  (88) 
MolPort-019-801-313

>  <libraries>  (88) 
molport

>  <PH4_SCORE>  (88) 
-54.0881

>  <o3da_score>  (88) 
88.646803717039646

>  <o3da_score_rel>  (88) 
0.41988425515597444

>  <o3da_align>  (88) 
0.37769999605097226

$$$$
8833948
     RDKit          3D

 20 22  0  0  0  0  0  0  0  0999 V2000
    6.0660   -0.2814   18.9997 C   0  0  0  0  0  0  0  0  0  0  0  0
    6.9155   -0.0584   20.1955 C   0  0  0  0  0  0  0  0  0  0  0  0
    8.2323   -0.0740   20.1996 N   0  0  0  0  0  0  0  0  0  0  0  0
    8.7494    0.1690   21.4537 N   0  0  0  0  0  0  0  0  0  0  0  0
    7.8058    0.3862   22.3476 C   0  0  0  0  0  0  0  0  0  0  0  0
    8.0455    0.7417   23.7428 C   0  0  0  0  0  0  0  0  0  0  0  0
    7.0091    1.3445   24.4749 C   0  0  0  0  0  0  0  0  0  0  0  0
    7.1888    1.6762   25.8176 C   0  0  0  0  0  0  0  0  0  0  0  0
    8.4012    1.4025   26.4436 C   0  0  0  0  0  0  0  0  0  0  0  0
    9.4350    0.7937   25.7295 C   0  0  0  0  0  0  0  0  0  0  0  0
    9.2766    0.4480   24.3746 C   0  0  0  0  0  0  0  0  0  0  0  0
   10.3995   -0.1886   23.6586 C   0  0  0  0  0  0  0  0  0  0  0  0
   11.6289    0.4995   23.5997 C   0  0  0  0  0  0  0  0  0  0  0  0
   12.7250   -0.0265   22.9155 C   0  0  0  0  0  0  0  0  0  0  0  0
   12.6143   -1.2536   22.2744 C   0  0  0  0  0  0  0  0  0  0  0  0
   11.4110   -1.9548   22.3253 C   0  0  0  0  0  0  0  0  0  0  0  0
   10.2943   -1.4426   23.0156 C   0  0  0  0  0  0  0  0  0  0  0  0
    9.0424   -2.2868   23.0426 C   0  0  0  0  0  0  0  0  0  0  0  0
    8.5869   -2.5263   21.7172 O   0  0  0  0  0  0  0  0  0  0  0  0
    6.2089    0.2511   21.7318 S   0  0  0  0  0  0  0  0  0  0  0  0
  1  2  1  0
  2  3  2  0
  3  4  1  0
  4  5  2  0
  5  6  1  0
  5 20  1  0
  6  7  2  0
  7  8  1  0
  8  9  2  0
  9 10  1  0
 10 11  2  0
 11 12  1  0
 11  6  1  0
 12 13  2  0
 13 14  1  0
 14 15  2  0
 15 16  1  0
 16 17  2  0
 17 18  1  0
 17 12  1  0
 18 19  1  0
 20  2  1  0
M  END
>  <enum_smi>  (89) 
Cc1nnc(-c2ccccc2-c2ccccc2CO)s1

>  <std_smi>  (89) 
Cc1nnc(-c2ccccc2-c2ccccc2CO)s1

>  <molecule_id>  (89) 
3274396

>  <enum_code>  (89) 
B

>  <codes>  (89) 
MolPort-019-801-313

>  <libraries>  (89) 
molport

>  <PH4_SCORE>  (89) 
-53.893

>  <o3da_score>  (89) 
89.10317141656283

>  <o3da_score_rel>  (89) 
0.42204588539594556

>  <o3da_align>  (89) 
0.36246576802236857

$$$$
8833948
     RDKit          3D

 20 22  0  0  0  0  0  0  0  0999 V2000
    5.6815    0.2289   19.7144 C   0  0  0  0  0  0  0  0  0  0  0  0
    6.9883   -0.4066   20.0140 C   0  0  0  0  0  0  0  0  0  0  0  0
    7.9887    0.1816   20.6365 N   0  0  0  0  0  0  0  0  0  0  0  0
    9.0748   -0.6548   20.7775 N   0  0  0  0  0  0  0  0  0  0  0  0
    8.8472   -1.8541   20.2807 C   0  0  0  0  0  0  0  0  0  0  0  0
    9.7805   -2.9744   20.3470 C   0  0  0  0  0  0  0  0  0  0  0  0
    9.5753   -4.0766   19.5004 C   0  0  0  0  0  0  0  0  0  0  0  0
   10.4586   -5.1558   19.5142 C   0  0  0  0  0  0  0  0  0  0  0  0
   11.5581   -5.1416   20.3671 C   0  0  0  0  0  0  0  0  0  0  0  0
   11.7788   -4.0469   21.2051 C   0  0  0  0  0  0  0  0  0  0  0  0
   10.9028   -2.9456   21.2075 C   0  0  0  0  0  0  0  0  0  0  0  0
   11.1731   -1.8134   22.1152 C   0  0  0  0  0  0  0  0  0  0  0  0
   12.3904   -1.1169   21.9686 C   0  0  0  0  0  0  0  0  0  0  0  0
   12.7272   -0.0557   22.8094 C   0  0  0  0  0  0  0  0  0  0  0  0
   11.8526    0.3314   23.8163 C   0  0  0  0  0  0  0  0  0  0  0  0
   10.6407   -0.3380   23.9753 C   0  0  0  0  0  0  0  0  0  0  0  0
   10.2801   -1.4086   23.1329 C   0  0  0  0  0  0  0  0  0  0  0  0
    8.9337   -2.0537   23.3606 C   0  0  0  0  0  0  0  0  0  0  0  0
    7.8938   -1.1396   23.0374 O   0  0  0  0  0  0  0  0  0  0  0  0
    7.3044   -2.0312   19.5490 S   0  0  0  0  0  0  0  0  0  0  0  0
  1  2  1  0
  2  3  2  0
  3  4  1  0
  4  5  2  0
  5  6  1  0
  5 20  1  0
  6  7  2  0
  7  8  1  0
  8  9  2  0
  9 10  1  0
 10 11  2  0
 11 12  1  0
 11  6  1  0
 12 13  2  0
 13 14  1  0
 14 15  2  0
 15 16  1  0
 16 17  2  0
 17 18  1  0
 17 12  1  0
 18 19  1  0
 20  2  1  0
M  END
>  <enum_smi>  (90) 
Cc1nnc(-c2ccccc2-c2ccccc2CO)s1

>  <std_smi>  (90) 
Cc1nnc(-c2ccccc2-c2ccccc2CO)s1

>  <molecule_id>  (90) 
3274396

>  <enum_code>  (90) 
B

>  <codes>  (90) 
MolPort-019-801-313

>  <libraries>  (90) 
molport

>  <PH4_SCORE>  (90) 
-53.8081

>  <o3da_score>  (90) 
87.46121167631928

>  <o3da_score_rel>  (90) 
0.41426858250830928

>  <o3da_align>  (90) 
0.49472174299529625

$$$$
8834323
     RDKit          3D

 20 21  0  0  1  0  0  0  0  0999 V2000
    3.8364   -0.3716   19.2046 C   0  0  0  0  0  0  0  0  0  0  0  0
    5.1447   -0.6279   19.7895 N   0  0  0  0  0  0  0  0  0  0  0  0
    5.9698    0.5800   19.8657 C   0  0  0  0  0  0  0  0  0  0  0  0
    7.4020    0.0576   19.9655 C   0  0  0  0  0  0  0  0  0  0  0  0
    7.3225   -1.4357   19.6227 C   0  0  1  0  0  0  0  0  0  0  0  0
    7.5261   -2.3361   20.8504 C   0  0  0  0  0  0  0  0  0  0  0  0
    8.8085   -2.1735   21.4928 N   0  0  0  0  0  0  0  0  0  0  0  0
    8.9261   -1.9019   22.8337 C   0  0  0  0  0  0  0  0  0  0  0  0
    8.0105   -1.8848   23.6455 O   0  0  0  0  0  0  0  0  0  0  0  0
   10.3627   -1.5673   23.2970 C   0  0  0  0  0  0  0  0  0  0  0  0
   10.5731   -1.3179   24.4740 O   0  0  0  0  0  0  0  0  0  0  0  0
   11.2564   -1.6245   22.2509 N   0  0  0  0  0  0  0  0  0  0  0  0
   12.6494   -1.4048   22.2704 C   0  0  0  0  0  0  0  0  0  0  0  0
   13.3517   -1.0756   23.4343 C   0  0  0  0  0  0  0  0  0  0  0  0
   14.7359   -0.8691   23.3946 C   0  0  0  0  0  0  0  0  0  0  0  0
   15.4331   -0.9904   22.1935 C   0  0  0  0  0  0  0  0  0  0  0  0
   14.7474   -1.3139   21.0244 C   0  0  0  0  0  0  0  0  0  0  0  0
   13.3651   -1.5180   21.0631 C   0  0  0  0  0  0  0  0  0  0  0  0
   12.5634   -1.9191   19.5816 Cl  0  0  0  0  0  0  0  0  0  0  0  0
    5.9325   -1.5850   19.0075 C   0  0  0  0  0  0  0  0  0  0  0  0
  1  2  1  0
  2  3  1  0
  3  4  1  0
  4  5  1  0
  5  6  1  1
  5 20  1  0
  6  7  1  0
  7  8  1  0
  8  9  2  0
  8 10  1  0
 10 11  2  0
 10 12  1  0
 12 13  1  0
 13 14  2  0
 14 15  1  0
 15 16  2  0
 16 17  1  0
 17 18  2  0
 18 19  1  0
 18 13  1  0
 20  2  1  0
M  END
>  <enum_smi>  (91) 
CN1CCC(CNC(=O)C(=O)Nc2ccccc2Cl)C1

>  <std_smi>  (91) 
CN1CCC(CNC(=O)C(=O)Nc2ccccc2Cl)C1

>  <molecule_id>  (91) 
3276710

>  <enum_code>  (91) 
B

>  <codes>  (91) 
MolPort-019-804-388

>  <libraries>  (91) 
molport

>  <PH4_SCORE>  (91) 
-62.8522

>  <o3da_score>  (91) 
71.384623595698883

>  <o3da_score_rel>  (91) 
0.33812025082984665

>  <o3da_align>  (91) 
0.52950479052373667

$$$$
8834323
     RDKit          3D

 20 21  0  0  1  0  0  0  0  0999 V2000
    6.8832   -0.4259   16.4578 C   0  0  0  0  0  0  0  0  0  0  0  0
    6.5844    0.0319   17.8071 N   0  0  0  0  0  0  0  0  0  0  0  0
    5.7733    1.2514   17.8174 C   0  0  0  0  0  0  0  0  0  0  0  0
    6.0199    1.8615   19.1964 C   0  0  0  0  0  0  0  0  0  0  0  0
    7.2172    1.0988   19.7782 C   0  0  1  0  0  0  0  0  0  0  0  0
    6.8161    0.1450   20.9134 C   0  0  0  0  0  0  0  0  0  0  0  0
    7.9164   -0.6106   21.4627 N   0  0  0  0  0  0  0  0  0  0  0  0
    7.7260   -1.6362   22.3560 C   0  0  0  0  0  0  0  0  0  0  0  0
    6.6464   -2.1031   22.6932 O   0  0  0  0  0  0  0  0  0  0  0  0
    9.0264   -2.1924   22.9807 C   0  0  0  0  0  0  0  0  0  0  0  0
    8.9625   -3.0995   23.7962 O   0  0  0  0  0  0  0  0  0  0  0  0
   10.1397   -1.5574   22.4775 N   0  0  0  0  0  0  0  0  0  0  0  0
   11.4976   -1.7904   22.7793 C   0  0  0  0  0  0  0  0  0  0  0  0
   11.9185   -2.7662   23.6889 C   0  0  0  0  0  0  0  0  0  0  0  0
   13.2811   -2.9540   23.9496 C   0  0  0  0  0  0  0  0  0  0  0  0
   14.2373   -2.1712   23.3043 C   0  0  0  0  0  0  0  0  0  0  0  0
   13.8341   -1.1922   22.3984 C   0  0  0  0  0  0  0  0  0  0  0  0
   12.4736   -1.0028   22.1395 C   0  0  0  0  0  0  0  0  0  0  0  0
   12.0284    0.2265   21.0041 Cl  0  0  0  0  0  0  0  0  0  0  0  0
    7.7920    0.3647   18.5682 C   0  0  0  0  0  0  0  0  0  0  0  0
  1  2  1  0
  2  3  1  0
  3  4  1  0
  4  5  1  0
  5  6  1  1
  5 20  1  0
  6  7  1  0
  7  8  1  0
  8  9  2  0
  8 10  1  0
 10 11  2  0
 10 12  1  0
 12 13  1  0
 13 14  2  0
 14 15  1  0
 15 16  2  0
 16 17  1  0
 17 18  2  0
 18 19  1  0
 18 13  1  0
 20  2  1  0
M  END
>  <enum_smi>  (92) 
CN1CCC(CNC(=O)C(=O)Nc2ccccc2Cl)C1

>  <std_smi>  (92) 
CN1CCC(CNC(=O)C(=O)Nc2ccccc2Cl)C1

>  <molecule_id>  (92) 
3276710

>  <enum_code>  (92) 
B

>  <codes>  (92) 
MolPort-019-804-388

>  <libraries>  (92) 
molport

>  <PH4_SCORE>  (92) 
-62.7595

>  <o3da_score>  (92) 
64.908225876155953

>  <o3da_score_rel>  (92) 
0.30744415966197719

>  <o3da_align>  (92) 
0.44776678633950046

$$$$
8834323
     RDKit          3D

 20 21  0  0  1  0  0  0  0  0999 V2000
   13.8201   -2.7813   23.6009 C   0  0  0  0  0  0  0  0  0  0  0  0
   12.5246   -2.4011   23.0563 N   0  0  0  0  0  0  0  0  0  0  0  0
   12.4961   -1.0095   22.6000 C   0  0  0  0  0  0  0  0  0  0  0  0
   11.0132   -0.6419   22.5906 C   0  0  0  0  0  0  0  0  0  0  0  0
   10.3025   -1.7694   23.3506 C   0  0  1  0  0  0  0  0  0  0  0  0
    9.4855   -2.6833   22.4250 C   0  0  0  0  0  0  0  0  0  0  0  0
    8.4334   -2.0039   21.7072 N   0  0  0  0  0  0  0  0  0  0  0  0
    8.2698   -2.1360   20.3502 C   0  0  0  0  0  0  0  0  0  0  0  0
    8.8864   -2.9047   19.6245 O   0  0  0  0  0  0  0  0  0  0  0  0
    7.2195   -1.1829   19.7348 C   0  0  0  0  0  0  0  0  0  0  0  0
    6.9816   -1.2412   18.5382 O   0  0  0  0  0  0  0  0  0  0  0  0
    6.6537   -0.3703   20.6915 N   0  0  0  0  0  0  0  0  0  0  0  0
    5.6524    0.6104   20.5331 C   0  0  0  0  0  0  0  0  0  0  0  0
    5.0683    0.9091   19.2977 C   0  0  0  0  0  0  0  0  0  0  0  0
    4.0772    1.8931   19.1996 C   0  0  0  0  0  0  0  0  0  0  0  0
    3.6580    2.5877   20.3333 C   0  0  0  0  0  0  0  0  0  0  0  0
    4.2329    2.3046   21.5707 C   0  0  0  0  0  0  0  0  0  0  0  0
    5.2240    1.3240   21.6687 C   0  0  0  0  0  0  0  0  0  0  0  0
    5.9033    1.0117   23.2307 Cl  0  0  0  0  0  0  0  0  0  0  0  0
   11.4469   -2.5058   24.0442 C   0  0  0  0  0  0  0  0  0  0  0  0
  1  2  1  0
  2  3  1  0
  3  4  1  0
  4  5  1  0
  5  6  1  6
  5 20  1  0
  6  7  1  0
  7  8  1  0
  8  9  2  0
  8 10  1  0
 10 11  2  0
 10 12  1  0
 12 13  1  0
 13 14  2  0
 14 15  1  0
 15 16  2  0
 16 17  1  0
 17 18  2  0
 18 19  1  0
 18 13  1  0
 20  2  1  0
M  END
>  <enum_smi>  (93) 
CN1CCC(CNC(=O)C(=O)Nc2ccccc2Cl)C1

>  <std_smi>  (93) 
CN1CCC(CNC(=O)C(=O)Nc2ccccc2Cl)C1

>  <molecule_id>  (93) 
3276710

>  <enum_code>  (93) 
B

>  <codes>  (93) 
MolPort-019-804-388

>  <libraries>  (93) 
molport

>  <PH4_SCORE>  (93) 
-62.5476

>  <o3da_score>  (93) 
68.041565862294291

>  <o3da_score_rel>  (93) 
0.32228553093611412

>  <o3da_align>  (93) 
0.64565967303408156

$$$$
8834323
     RDKit          3D

 20 21  0  0  1  0  0  0  0  0999 V2000
    4.2688   -0.0627   24.3254 C   0  0  0  0  0  0  0  0  0  0  0  0
    5.4108   -0.9349   24.5583 N   0  0  0  0  0  0  0  0  0  0  0  0
    5.0143   -2.3254   24.7922 C   0  0  0  0  0  0  0  0  0  0  0  0
    6.2024   -2.9417   25.5293 C   0  0  0  0  0  0  0  0  0  0  0  0
    7.0875   -1.7605   25.9480 C   0  0  1  0  0  0  0  0  0  0  0  0
    8.3845   -1.6739   25.1296 C   0  0  0  0  0  0  0  0  0  0  0  0
    8.1747   -1.5002   23.7121 N   0  0  0  0  0  0  0  0  0  0  0  0
    9.0700   -1.9601   22.7779 C   0  0  0  0  0  0  0  0  0  0  0  0
   10.0535   -2.6516   23.0062 O   0  0  0  0  0  0  0  0  0  0  0  0
    8.7743   -1.5088   21.3290 C   0  0  0  0  0  0  0  0  0  0  0  0
    9.5137   -1.8653   20.4246 O   0  0  0  0  0  0  0  0  0  0  0  0
    7.6344   -0.7392   21.2630 N   0  0  0  0  0  0  0  0  0  0  0  0
    7.0283   -0.1596   20.1290 C   0  0  0  0  0  0  0  0  0  0  0  0
    7.5397   -0.3041   18.8353 C   0  0  0  0  0  0  0  0  0  0  0  0
    6.8952    0.2938   17.7456 C   0  0  0  0  0  0  0  0  0  0  0  0
    5.7335    1.0405   17.9359 C   0  0  0  0  0  0  0  0  0  0  0  0
    5.2135    1.1972   19.2191 C   0  0  0  0  0  0  0  0  0  0  0  0
    5.8578    0.6023   20.3076 C   0  0  0  0  0  0  0  0  0  0  0  0
    5.1679    0.8281   21.8798 Cl  0  0  0  0  0  0  0  0  0  0  0  0
    6.1810   -0.5482   25.7440 C   0  0  0  0  0  0  0  0  0  0  0  0
  1  2  1  0
  2  3  1  0
  3  4  1  0
  4  5  1  0
  5  6  1  6
  5 20  1  0
  6  7  1  0
  7  8  1  0
  8  9  2  0
  8 10  1  0
 10 11  2  0
 10 12  1  0
 12 13  1  0
 13 14  2  0
 14 15  1  0
 15 16  2  0
 16 17  1  0
 17 18  2  0
 18 19  1  0
 18 13  1  0
 20  2  1  0
M  END
>  <enum_smi>  (94) 
CN1CCC(CNC(=O)C(=O)Nc2ccccc2Cl)C1

>  <std_smi>  (94) 
CN1CCC(CNC(=O)C(=O)Nc2ccccc2Cl)C1

>  <molecule_id>  (94) 
3276710

>  <enum_code>  (94) 
B

>  <codes>  (94) 
MolPort-019-804-388

>  <libraries>  (94) 
molport

>  <PH4_SCORE>  (94) 
-62.5212

>  <o3da_score>  (94) 
73.015611009134901

>  <o3da_score_rel>  (94) 
0.34584558221850348

>  <o3da_align>  (94) 
0.27261688168725634

$$$$
8834323
     RDKit          3D

 20 21  0  0  1  0  0  0  0  0999 V2000
   13.3053   -3.0405   22.2428 C   0  0  0  0  0  0  0  0  0  0  0  0
   12.0381   -2.3576   22.0254 N   0  0  0  0  0  0  0  0  0  0  0  0
   12.1164   -0.9253   22.3216 C   0  0  0  0  0  0  0  0  0  0  0  0
   10.6679   -0.5080   22.5714 C   0  0  0  0  0  0  0  0  0  0  0  0
    9.8780   -1.8164   22.7070 C   0  0  1  0  0  0  0  0  0  0  0  0
    8.9785   -2.0929   21.4930 C   0  0  0  0  0  0  0  0  0  0  0  0
    7.9777   -1.0792   21.2598 N   0  0  0  0  0  0  0  0  0  0  0  0
    7.2261   -0.5449   22.2775 C   0  0  0  0  0  0  0  0  0  0  0  0
    7.3822   -0.7571   23.4725 O   0  0  0  0  0  0  0  0  0  0  0  0
    6.0765    0.3771   21.8100 C   0  0  0  0  0  0  0  0  0  0  0  0
    5.3432    0.8927   22.6396 O   0  0  0  0  0  0  0  0  0  0  0  0
    6.0601    0.5080   20.4394 N   0  0  0  0  0  0  0  0  0  0  0  0
    5.1855    1.2715   19.6385 C   0  0  0  0  0  0  0  0  0  0  0  0
    4.1476    2.0446   20.1688 C   0  0  0  0  0  0  0  0  0  0  0  0
    3.3096    2.7837   19.3253 C   0  0  0  0  0  0  0  0  0  0  0  0
    3.4999    2.7599   17.9444 C   0  0  0  0  0  0  0  0  0  0  0  0
    4.5271    1.9916   17.4002 C   0  0  0  0  0  0  0  0  0  0  0  0
    5.3625    1.2517   18.2419 C   0  0  0  0  0  0  0  0  0  0  0  0
    6.6236    0.3156   17.5127 Cl  0  0  0  0  0  0  0  0  0  0  0  0
   10.9677   -2.8719   22.8846 C   0  0  0  0  0  0  0  0  0  0  0  0
  1  2  1  0
  2  3  1  0
  3  4  1  0
  4  5  1  0
  5  6  1  6
  5 20  1  0
  6  7  1  0
  7  8  1  0
  8  9  2  0
  8 10  1  0
 10 11  2  0
 10 12  1  0
 12 13  1  0
 13 14  2  0
 14 15  1  0
 15 16  2  0
 16 17  1  0
 17 18  2  0
 18 19  1  0
 18 13  1  0
 20  2  1  0
M  END
>  <enum_smi>  (95) 
CN1CCC(CNC(=O)C(=O)Nc2ccccc2Cl)C1

>  <std_smi>  (95) 
CN1CCC(CNC(=O)C(=O)Nc2ccccc2Cl)C1

>  <molecule_id>  (95) 
3276710

>  <enum_code>  (95) 
B

>  <codes>  (95) 
MolPort-019-804-388

>  <libraries>  (95) 
molport

>  <PH4_SCORE>  (95) 
-62.1003

>  <o3da_score>  (95) 
74.580478757918527

>  <o3da_score_rel>  (95) 
0.35325773134926025

>  <o3da_align>  (95) 
0.51092244001980536

$$$$
8835024
     RDKit          3D

 20 21  0  0  0  0  0  0  0  0999 V2000
    4.0386   -3.7765   20.0214 C   0  0  0  0  0  0  0  0  0  0  0  0
    5.1355   -2.9976   20.7010 C   0  0  0  0  0  0  0  0  0  0  0  0
    5.0746   -1.7689   20.7957 O   0  0  0  0  0  0  0  0  0  0  0  0
    6.3172   -3.7618   21.2350 C   0  0  0  0  0  0  0  0  0  0  0  0
    7.2208   -2.8992   21.9685 N   0  0  0  0  0  0  0  0  0  0  0  0
    6.7651   -2.2912   23.0802 N   0  0  0  0  0  0  0  0  0  0  0  0
    7.8198   -1.6074   23.5381 C   0  0  0  0  0  0  0  0  0  0  0  0
    7.7073   -0.8137   24.7870 C   0  0  0  0  0  0  0  0  0  0  0  0
    8.9529   -1.7708   22.6987 C   0  0  0  0  0  0  0  0  0  0  0  0
   10.2839   -1.2096   22.8132 C   0  0  0  0  0  0  0  0  0  0  0  0
   10.5113   -0.1107   23.6496 C   0  0  0  0  0  0  0  0  0  0  0  0
   11.7929    0.4293   23.7712 C   0  0  0  0  0  0  0  0  0  0  0  0
   12.8560   -0.1279   23.0585 C   0  0  0  0  0  0  0  0  0  0  0  0
   12.6385   -1.2294   22.2214 C   0  0  0  0  0  0  0  0  0  0  0  0
   13.7345   -1.8544   21.4432 C   0  0  0  0  0  0  0  0  0  0  0  0
   13.6275   -2.8186   20.7085 O   0  0  0  0  0  0  0  0  0  0  0  0
   14.9178   -1.2409   21.6211 O   0  0  0  0  0  0  0  0  0  0  0  0
   11.3517   -1.7697   22.1022 C   0  0  0  0  0  0  0  0  0  0  0  0
    8.5304   -2.6047   21.6771 C   0  0  0  0  0  0  0  0  0  0  0  0
    9.2316   -3.1333   20.4760 C   0  0  0  0  0  0  0  0  0  0  0  0
  1  2  1  0
  2  3  2  0
  2  4  1  0
  4  5  1  0
  5  6  1  0
  6  7  2  0
  7  8  1  0
  7  9  1  0
  9 10  1  0
  9 19  2  0
 10 11  2  0
 11 12  1  0
 12 13  2  0
 13 14  1  0
 14 15  1  0
 14 18  2  0
 15 16  2  0
 15 17  1  0
 18 10  1  0
 19 20  1  0
 19  5  1  0
M  END
>  <enum_smi>  (96) 
CC(=O)Cn1nc(C)c(-c2cccc(C(=O)O)c2)c1C

>  <std_smi>  (96) 
CC(=O)Cn1nc(C)c(-c2cccc(C(=O)O)c2)c1C

>  <molecule_id>  (96) 
3272639

>  <enum_code>  (96) 
B

>  <codes>  (96) 
MolPort-019-798-965

>  <libraries>  (96) 
molport

>  <PH4_SCORE>  (96) 
-55.2584

>  <o3da_score>  (96) 
71.713849032554307

>  <o3da_score_rel>  (96) 
0.33967965930861921

>  <o3da_align>  (96) 
0.19530768957952338

$$$$
8835024
     RDKit          3D

 20 21  0  0  0  0  0  0  0  0999 V2000
    2.2165   -0.1048   17.2435 C   0  0  0  0  0  0  0  0  0  0  0  0
    3.5961   -0.2921   17.8211 C   0  0  0  0  0  0  0  0  0  0  0  0
    4.2111   -1.3498   17.6621 O   0  0  0  0  0  0  0  0  0  0  0  0
    4.1868    0.8394   18.6188 C   0  0  0  0  0  0  0  0  0  0  0  0
    5.5389    0.5408   19.0444 N   0  0  0  0  0  0  0  0  0  0  0  0
    6.4674    0.2930   18.1012 N   0  0  0  0  0  0  0  0  0  0  0  0
    7.5943    0.0899   18.7929 C   0  0  0  0  0  0  0  0  0  0  0  0
    8.8644   -0.1950   18.0800 C   0  0  0  0  0  0  0  0  0  0  0  0
    7.3750    0.1943   20.1916 C   0  0  0  0  0  0  0  0  0  0  0  0
    8.3039    0.0405   21.2928 C   0  0  0  0  0  0  0  0  0  0  0  0
    7.9891    0.5620   22.5529 C   0  0  0  0  0  0  0  0  0  0  0  0
    8.8758    0.4096   23.6203 C   0  0  0  0  0  0  0  0  0  0  0  0
   10.0823   -0.2676   23.4349 C   0  0  0  0  0  0  0  0  0  0  0  0
   10.4044   -0.7953   22.1784 C   0  0  0  0  0  0  0  0  0  0  0  0
   11.6736   -1.5205   21.9317 C   0  0  0  0  0  0  0  0  0  0  0  0
   12.0220   -2.0083   20.8726 O   0  0  0  0  0  0  0  0  0  0  0  0
   12.4509   -1.6009   23.0261 O   0  0  0  0  0  0  0  0  0  0  0  0
    9.5123   -0.6419   21.1094 C   0  0  0  0  0  0  0  0  0  0  0  0
    6.0254    0.4738   20.3272 C   0  0  0  0  0  0  0  0  0  0  0  0
    5.1714    0.6745   21.5288 C   0  0  0  0  0  0  0  0  0  0  0  0
  1  2  1  0
  2  3  2  0
  2  4  1  0
  4  5  1  0
  5  6  1  0
  6  7  2  0
  7  8  1  0
  7  9  1  0
  9 10  1  0
  9 19  2  0
 10 11  2  0
 11 12  1  0
 12 13  2  0
 13 14  1  0
 14 15  1  0
 14 18  2  0
 15 16  2  0
 15 17  1  0
 18 10  1  0
 19 20  1  0
 19  5  1  0
M  END
>  <enum_smi>  (97) 
CC(=O)Cn1nc(C)c(-c2cccc(C(=O)O)c2)c1C

>  <std_smi>  (97) 
CC(=O)Cn1nc(C)c(-c2cccc(C(=O)O)c2)c1C

>  <molecule_id>  (97) 
3272639

>  <enum_code>  (97) 
B

>  <codes>  (97) 
MolPort-019-798-965

>  <libraries>  (97) 
molport

>  <PH4_SCORE>  (97) 
-55.1829

>  <o3da_score>  (97) 
76.134902773623836

>  <o3da_score_rel>  (97) 
0.36062041271693063

>  <o3da_align>  (97) 
0.58209789436504755

$$$$
8835024
     RDKit          3D

 20 21  0  0  0  0  0  0  0  0999 V2000
   11.8799   -3.4202   24.6859 C   0  0  0  0  0  0  0  0  0  0  0  0
   10.7774   -2.5441   24.1486 C   0  0  0  0  0  0  0  0  0  0  0  0
   10.6962   -1.3568   24.4743 O   0  0  0  0  0  0  0  0  0  0  0  0
    9.7655   -3.1690   23.2260 C   0  0  0  0  0  0  0  0  0  0  0  0
    8.8375   -2.1840   22.7092 N   0  0  0  0  0  0  0  0  0  0  0  0
    8.2040   -1.3798   23.5838 N   0  0  0  0  0  0  0  0  0  0  0  0
    7.4593   -0.5774   22.8148 C   0  0  0  0  0  0  0  0  0  0  0  0
    6.6208    0.4790   23.4337 C   0  0  0  0  0  0  0  0  0  0  0  0
    7.6100   -0.8867   21.4375 C   0  0  0  0  0  0  0  0  0  0  0  0
    6.9905   -0.2826   20.2754 C   0  0  0  0  0  0  0  0  0  0  0  0
    5.8501    0.5150   20.4246 C   0  0  0  0  0  0  0  0  0  0  0  0
    5.2534    1.1072   19.3100 C   0  0  0  0  0  0  0  0  0  0  0  0
    5.7949    0.9072   18.0391 C   0  0  0  0  0  0  0  0  0  0  0  0
    6.9375    0.1131   17.8806 C   0  0  0  0  0  0  0  0  0  0  0  0
    7.5480   -0.1301   16.5518 C   0  0  0  0  0  0  0  0  0  0  0  0
    8.5428   -0.7968   16.3354 O   0  0  0  0  0  0  0  0  0  0  0  0
    6.8822    0.4743   15.5519 O   0  0  0  0  0  0  0  0  0  0  0  0
    7.5347   -0.4789   19.0007 C   0  0  0  0  0  0  0  0  0  0  0  0
    8.5015   -1.9457   21.3989 C   0  0  0  0  0  0  0  0  0  0  0  0
    9.0492   -2.7384   20.2653 C   0  0  0  0  0  0  0  0  0  0  0  0
  1  2  1  0
  2  3  2  0
  2  4  1  0
  4  5  1  0
  5  6  1  0
  6  7  2  0
  7  8  1  0
  7  9  1  0
  9 10  1  0
  9 19  2  0
 10 11  2  0
 11 12  1  0
 12 13  2  0
 13 14  1  0
 14 15  1  0
 14 18  2  0
 15 16  2  0
 15 17  1  0
 18 10  1  0
 19 20  1  0
 19  5  1  0
M  END
>  <enum_smi>  (98) 
CC(=O)Cn1nc(C)c(-c2cccc(C(=O)O)c2)c1C

>  <std_smi>  (98) 
CC(=O)Cn1nc(C)c(-c2cccc(C(=O)O)c2)c1C

>  <molecule_id>  (98) 
3272639

>  <enum_code>  (98) 
B

>  <codes>  (98) 
MolPort-019-798-965

>  <libraries>  (98) 
molport

>  <PH4_SCORE>  (98) 
-54.0877

>  <o3da_score>  (98) 
69.697889810299074

>  <o3da_score_rel>  (98) 
0.33013087129858126

>  <o3da_align>  (98) 
0.3603244707936058

$$$$
8835024
     RDKit          3D

 20 21  0  0  0  0  0  0  0  0999 V2000
    3.1722   -0.4623   20.4021 C   0  0  0  0  0  0  0  0  0  0  0  0
    4.6004   -0.9158   20.5647 C   0  0  0  0  0  0  0  0  0  0  0  0
    4.8625   -2.0664   20.9252 O   0  0  0  0  0  0  0  0  0  0  0  0
    5.6931    0.0849   20.3001 C   0  0  0  0  0  0  0  0  0  0  0  0
    7.0012   -0.4678   20.5868 N   0  0  0  0  0  0  0  0  0  0  0  0
    7.3516   -1.6250   19.9942 N   0  0  0  0  0  0  0  0  0  0  0  0
    8.5982   -1.8515   20.4236 C   0  0  0  0  0  0  0  0  0  0  0  0
    9.3405   -3.0487   19.9571 C   0  0  0  0  0  0  0  0  0  0  0  0
    9.0377   -0.8345   21.3112 C   0  0  0  0  0  0  0  0  0  0  0  0
   10.2997   -0.6898   22.0080 C   0  0  0  0  0  0  0  0  0  0  0  0
   10.3968    0.1660   23.1112 C   0  0  0  0  0  0  0  0  0  0  0  0
   11.6076    0.3033   23.7925 C   0  0  0  0  0  0  0  0  0  0  0  0
   12.7289   -0.4164   23.3759 C   0  0  0  0  0  0  0  0  0  0  0  0
   12.6404   -1.2773   22.2749 C   0  0  0  0  0  0  0  0  0  0  0  0
   13.8033   -2.0609   21.7938 C   0  0  0  0  0  0  0  0  0  0  0  0
   13.7972   -2.8502   20.8676 O   0  0  0  0  0  0  0  0  0  0  0  0
   14.9237   -1.8188   22.4968 O   0  0  0  0  0  0  0  0  0  0  0  0
   11.4240   -1.4139   21.5940 C   0  0  0  0  0  0  0  0  0  0  0  0
    7.9730    0.0453   21.4108 C   0  0  0  0  0  0  0  0  0  0  0  0
    7.7907    1.2948   22.1977 C   0  0  0  0  0  0  0  0  0  0  0  0
  1  2  1  0
  2  3  2  0
  2  4  1  0
  4  5  1  0
  5  6  1  0
  6  7  2  0
  7  8  1  0
  7  9  1  0
  9 10  1  0
  9 19  2  0
 10 11  2  0
 11 12  1  0
 12 13  2  0
 13 14  1  0
 14 15  1  0
 14 18  2  0
 15 16  2  0
 15 17  1  0
 18 10  1  0
 19 20  1  0
 19  5  1  0
M  END
>  <enum_smi>  (99) 
CC(=O)Cn1nc(C)c(-c2cccc(C(=O)O)c2)c1C

>  <std_smi>  (99) 
CC(=O)Cn1nc(C)c(-c2cccc(C(=O)O)c2)c1C

>  <molecule_id>  (99) 
3272639

>  <enum_code>  (99) 
B

>  <codes>  (99) 
MolPort-019-798-965

>  <libraries>  (99) 
molport

>  <PH4_SCORE>  (99) 
-53.7297

>  <o3da_score>  (99) 
75.252905008145845

>  <o3da_score_rel>  (99) 
0.35644274404441906

>  <o3da_align>  (99) 
0.58329877685872578

$$$$
8835024
     RDKit          3D

 20 21  0  0  0  0  0  0  0  0999 V2000
    4.5585    1.5474   18.0398 C   0  0  0  0  0  0  0  0  0  0  0  0
    5.7521    0.7965   18.5723 C   0  0  0  0  0  0  0  0  0  0  0  0
    6.5600    0.2656   17.8055 O   0  0  0  0  0  0  0  0  0  0  0  0
    5.9117    0.6922   20.0652 C   0  0  0  0  0  0  0  0  0  0  0  0
    7.1408    0.0139   20.4224 N   0  0  0  0  0  0  0  0  0  0  0  0
    7.3979   -1.1834   19.8627 N   0  0  0  0  0  0  0  0  0  0  0  0
    8.5929   -1.5284   20.3551 C   0  0  0  0  0  0  0  0  0  0  0  0
    9.2292   -2.8034   19.9408 C   0  0  0  0  0  0  0  0  0  0  0  0
    9.0925   -0.5459   21.2499 C   0  0  0  0  0  0  0  0  0  0  0  0
   10.3285   -0.5186   22.0053 C   0  0  0  0  0  0  0  0  0  0  0  0
   10.4402    0.2979   23.1366 C   0  0  0  0  0  0  0  0  0  0  0  0
   11.6254    0.3221   23.8741 C   0  0  0  0  0  0  0  0  0  0  0  0
   12.7058   -0.4718   23.4860 C   0  0  0  0  0  0  0  0  0  0  0  0
   12.6024   -1.2940   22.3570 C   0  0  0  0  0  0  0  0  0  0  0  0
   13.7223   -2.1532   21.9045 C   0  0  0  0  0  0  0  0  0  0  0  0
   13.7071   -2.8953   20.9401 O   0  0  0  0  0  0  0  0  0  0  0  0
   14.8135   -2.0427   22.6825 O   0  0  0  0  0  0  0  0  0  0  0  0
   11.4116   -1.3173   21.6197 C   0  0  0  0  0  0  0  0  0  0  0  0
    8.1204    0.4397   21.2861 C   0  0  0  0  0  0  0  0  0  0  0  0
    8.0310    1.7150   22.0469 C   0  0  0  0  0  0  0  0  0  0  0  0
  1  2  1  0
  2  3  2  0
  2  4  1  0
  4  5  1  0
  5  6  1  0
  6  7  2  0
  7  8  1  0
  7  9  1  0
  9 10  1  0
  9 19  2  0
 10 11  2  0
 11 12  1  0
 12 13  2  0
 13 14  1  0
 14 15  1  0
 14 18  2  0
 15 16  2  0
 15 17  1  0
 18 10  1  0
 19 20  1  0
 19  5  1  0
M  END
>  <enum_smi>  (100) 
CC(=O)Cn1nc(C)c(-c2cccc(C(=O)O)c2)c1C

>  <std_smi>  (100) 
CC(=O)Cn1nc(C)c(-c2cccc(C(=O)O)c2)c1C

>  <molecule_id>  (100) 
3272639

>  <enum_code>  (100) 
B

>  <codes>  (100) 
MolPort-019-798-965

>  <libraries>  (100) 
molport

>  <PH4_SCORE>  (100) 
-53.5923

>  <o3da_score>  (100) 
87.38328443207466

>  <o3da_score_rel>  (100) 
0.4138994724949302

>  <o3da_align>  (100) 
0.52626751330832611

$$$$
